* NGSPICE file created from sky130_vbl_ip__overvoltage.ext - technology: sky130A

.subckt sky130_fd_pr__res_xhigh_po_1p41_LV9PDH a_8742_125# a_n3732_n557# a_1560_125#
+ a_3828_n557# a_n7512_n557# a_804_n557# a_7608_n557# a_n4110_n557# a_3072_125# a_4206_n557#
+ a_4584_125# a_n4110_125# a_6096_125# a_n5622_125# a_6852_n557# a_n4866_n557# a_n1464_n557#
+ a_3450_n557# a_48_125# a_n8646_n557# a_7230_n557# a_n5244_n557# a_n7134_125# a_n8646_125#
+ a_n1464_125# a_n9024_n557# a_n2976_125# a_804_125# a_2316_125# a_3828_125# a_n7890_n557#
+ a_5340_125# a_7986_n557# a_n4488_125# a_4584_n557# a_n2598_n557# a_1182_n557# a_6852_125#
+ a_8364_n557# a_n6378_n557# a_8364_125# a_1182_125# a_2694_125# a_n2220_125# a_n1842_n557#
+ a_48_n557# a_1938_n557# a_n3732_125# a_n708_125# a_n5622_n557# a_n2220_n557# a_5718_n557#
+ a_2316_n557# a_6096_n557# a_n5244_125# a_n6000_n557# a_n6756_125# a_7608_125# a_n8268_125#
+ a_n2976_n557# a_4962_n557# a_n1086_125# a_1560_n557# a_1938_125# a_n2598_125# a_3450_125#
+ a_4962_125# a_8742_n557# a_5340_n557# a_n6756_n557# a_426_125# a_n3354_n557# a_6474_125#
+ a_n7134_n557# a_426_n557# a_7986_125# a_n708_n557# a_n6000_125# a_n7512_125# a_2694_n557#
+ a_n1842_125# a_6474_n557# a_3072_n557# a_n4488_n557# a_n1086_n557# a_n330_125# a_n9024_125#
+ a_n3354_125# a_n8268_n557# a_n4866_125# a_n330_n557# a_n7890_125# a_4206_125# a_5718_125#
+ a_7230_125# 0 a_n6378_125#
X0 a_n8646_125# a_n8646_n557# 0 sky130_fd_pr__res_xhigh_po_1p41 l=1.41
X1 a_n6000_125# a_n6000_n557# 0 sky130_fd_pr__res_xhigh_po_1p41 l=1.41
X2 a_n1464_125# a_n1464_n557# 0 sky130_fd_pr__res_xhigh_po_1p41 l=1.41
X3 a_6474_125# a_6474_n557# 0 sky130_fd_pr__res_xhigh_po_1p41 l=1.41
X4 a_804_125# a_804_n557# 0 sky130_fd_pr__res_xhigh_po_1p41 l=1.41
X5 a_n7134_125# a_n7134_n557# 0 sky130_fd_pr__res_xhigh_po_1p41 l=1.41
X6 a_n4488_125# a_n4488_n557# 0 sky130_fd_pr__res_xhigh_po_1p41 l=1.41
X7 a_5718_125# a_5718_n557# 0 sky130_fd_pr__res_xhigh_po_1p41 l=1.41
X8 a_n1842_125# a_n1842_n557# 0 sky130_fd_pr__res_xhigh_po_1p41 l=1.41
X9 a_6852_125# a_6852_n557# 0 sky130_fd_pr__res_xhigh_po_1p41 l=1.41
X10 a_n7512_125# a_n7512_n557# 0 sky130_fd_pr__res_xhigh_po_1p41 l=1.41
X11 a_n4866_125# a_n4866_n557# 0 sky130_fd_pr__res_xhigh_po_1p41 l=1.41
X12 a_4206_125# a_4206_n557# 0 sky130_fd_pr__res_xhigh_po_1p41 l=1.41
X13 a_5340_125# a_5340_n557# 0 sky130_fd_pr__res_xhigh_po_1p41 l=1.41
X14 a_n330_125# a_n330_n557# 0 sky130_fd_pr__res_xhigh_po_1p41 l=1.41
X15 a_2694_125# a_2694_n557# 0 sky130_fd_pr__res_xhigh_po_1p41 l=1.41
X16 a_n7890_125# a_n7890_n557# 0 sky130_fd_pr__res_xhigh_po_1p41 l=1.41
X17 a_n3354_125# a_n3354_n557# 0 sky130_fd_pr__res_xhigh_po_1p41 l=1.41
X18 a_n2220_125# a_n2220_n557# 0 sky130_fd_pr__res_xhigh_po_1p41 l=1.41
X19 a_8364_125# a_8364_n557# 0 sky130_fd_pr__res_xhigh_po_1p41 l=1.41
X20 a_1182_125# a_1182_n557# 0 sky130_fd_pr__res_xhigh_po_1p41 l=1.41
X21 a_1938_125# a_1938_n557# 0 sky130_fd_pr__res_xhigh_po_1p41 l=1.41
X22 a_n9024_125# a_n9024_n557# 0 sky130_fd_pr__res_xhigh_po_1p41 l=1.41
X23 a_n708_125# a_n708_n557# 0 sky130_fd_pr__res_xhigh_po_1p41 l=1.41
X24 a_48_125# a_48_n557# 0 sky130_fd_pr__res_xhigh_po_1p41 l=1.41
X25 a_n6378_125# a_n6378_n557# 0 sky130_fd_pr__res_xhigh_po_1p41 l=1.41
X26 a_n3732_125# a_n3732_n557# 0 sky130_fd_pr__res_xhigh_po_1p41 l=1.41
X27 a_7608_125# a_7608_n557# 0 sky130_fd_pr__res_xhigh_po_1p41 l=1.41
X28 a_8742_125# a_8742_n557# 0 sky130_fd_pr__res_xhigh_po_1p41 l=1.41
X29 a_1560_125# a_1560_n557# 0 sky130_fd_pr__res_xhigh_po_1p41 l=1.41
X30 a_n6756_125# a_n6756_n557# 0 sky130_fd_pr__res_xhigh_po_1p41 l=1.41
X31 a_7230_125# a_7230_n557# 0 sky130_fd_pr__res_xhigh_po_1p41 l=1.41
X32 a_4584_125# a_4584_n557# 0 sky130_fd_pr__res_xhigh_po_1p41 l=1.41
X33 a_n5244_125# a_n5244_n557# 0 sky130_fd_pr__res_xhigh_po_1p41 l=1.41
X34 a_n4110_125# a_n4110_n557# 0 sky130_fd_pr__res_xhigh_po_1p41 l=1.41
X35 a_n2598_125# a_n2598_n557# 0 sky130_fd_pr__res_xhigh_po_1p41 l=1.41
X36 a_3072_125# a_3072_n557# 0 sky130_fd_pr__res_xhigh_po_1p41 l=1.41
X37 a_3828_125# a_3828_n557# 0 sky130_fd_pr__res_xhigh_po_1p41 l=1.41
X38 a_4962_125# a_4962_n557# 0 sky130_fd_pr__res_xhigh_po_1p41 l=1.41
X39 a_n8268_125# a_n8268_n557# 0 sky130_fd_pr__res_xhigh_po_1p41 l=1.41
X40 a_n5622_125# a_n5622_n557# 0 sky130_fd_pr__res_xhigh_po_1p41 l=1.41
X41 a_n2976_125# a_n2976_n557# 0 sky130_fd_pr__res_xhigh_po_1p41 l=1.41
X42 a_n1086_125# a_n1086_n557# 0 sky130_fd_pr__res_xhigh_po_1p41 l=1.41
X43 a_6096_125# a_6096_n557# 0 sky130_fd_pr__res_xhigh_po_1p41 l=1.41
X44 a_7986_125# a_7986_n557# 0 sky130_fd_pr__res_xhigh_po_1p41 l=1.41
X45 a_426_125# a_426_n557# 0 sky130_fd_pr__res_xhigh_po_1p41 l=1.41
X46 a_2316_125# a_2316_n557# 0 sky130_fd_pr__res_xhigh_po_1p41 l=1.41
X47 a_3450_125# a_3450_n557# 0 sky130_fd_pr__res_xhigh_po_1p41 l=1.41
C0 a_n7512_125# a_n7512_n557# 0.063641f
C1 a_5718_125# a_6096_125# 0.296258f
C2 a_n1464_125# a_n1086_125# 0.296258f
C3 a_n8646_125# a_n9024_125# 0.296258f
C4 a_3072_125# a_2694_125# 0.296258f
C5 a_1560_n557# a_1938_n557# 0.296258f
C6 a_7986_n557# a_7986_125# 0.063641f
C7 a_n4110_125# a_n3732_125# 0.296258f
C8 a_n5244_125# a_n5622_125# 0.296258f
C9 a_7986_n557# a_7608_n557# 0.296258f
C10 a_8742_n557# a_8742_125# 0.063641f
C11 a_3828_125# a_3828_n557# 0.063641f
C12 a_804_n557# a_426_n557# 0.296258f
C13 a_6852_n557# a_6474_n557# 0.296258f
C14 a_8364_125# a_8742_125# 0.296258f
C15 a_4206_n557# a_3828_n557# 0.296258f
C16 a_n8268_n557# a_n7890_n557# 0.296258f
C17 a_1560_125# a_1938_125# 0.296258f
C18 a_n2598_n557# a_n2976_n557# 0.296258f
C19 a_7230_125# a_6852_125# 0.296258f
C20 a_1182_125# a_1182_n557# 0.063641f
C21 a_7230_n557# a_6852_n557# 0.296258f
C22 a_n6756_n557# a_n6756_125# 0.063641f
C23 a_n2220_125# a_n2598_125# 0.296258f
C24 a_n6378_125# a_n6378_n557# 0.063641f
C25 a_804_n557# a_804_125# 0.063641f
C26 a_7986_n557# a_8364_n557# 0.296258f
C27 a_4584_125# a_4584_n557# 0.063641f
C28 a_n4866_125# a_n4488_125# 0.296258f
C29 a_1182_n557# a_1560_n557# 0.296258f
C30 a_n330_n557# a_48_n557# 0.296258f
C31 a_7608_125# a_7230_125# 0.296258f
C32 a_n708_n557# a_n330_n557# 0.296258f
C33 a_2316_125# a_2694_125# 0.296258f
C34 a_3072_125# a_3072_n557# 0.063641f
C35 a_6474_125# a_6474_n557# 0.063641f
C36 a_n8646_n557# a_n9024_n557# 0.296258f
C37 a_7608_125# a_7986_125# 0.296258f
C38 a_n3354_n557# a_n3732_n557# 0.296258f
C39 a_n330_125# a_48_125# 0.296258f
C40 a_n1086_125# a_n708_125# 0.296258f
C41 a_2316_n557# a_2316_125# 0.063641f
C42 a_4206_125# a_3828_125# 0.296258f
C43 a_n2220_125# a_n1842_125# 0.296258f
C44 a_n7134_125# a_n6756_125# 0.296258f
C45 a_3072_125# a_3450_125# 0.296258f
C46 a_n2976_125# a_n2976_n557# 0.063641f
C47 a_n5244_n557# a_n4866_n557# 0.296258f
C48 a_n2976_125# a_n3354_125# 0.296258f
C49 a_n708_n557# a_n1086_n557# 0.296258f
C50 a_7608_n557# a_7608_125# 0.063641f
C51 a_4206_n557# a_4206_125# 0.063641f
C52 a_n3732_n557# a_n3732_125# 0.063641f
C53 a_3828_125# a_3450_125# 0.296258f
C54 a_6096_125# a_6096_n557# 0.063641f
C55 a_n8268_125# a_n8268_n557# 0.063641f
C56 a_n8268_n557# a_n8646_n557# 0.296258f
C57 a_n2598_n557# a_n2220_n557# 0.296258f
C58 a_5718_125# a_5340_125# 0.296258f
C59 a_n1464_n557# a_n1842_n557# 0.296258f
C60 a_n330_125# a_n708_125# 0.296258f
C61 a_1938_125# a_1938_n557# 0.063641f
C62 a_n5622_125# a_n6000_125# 0.296258f
C63 a_n4110_125# a_n4110_n557# 0.063641f
C64 a_n5622_n557# a_n5622_125# 0.063641f
C65 a_n8268_125# a_n8646_125# 0.296258f
C66 a_48_n557# a_426_n557# 0.296258f
C67 a_n8646_n557# a_n8646_125# 0.063641f
C68 a_n4110_n557# a_n4488_n557# 0.296258f
C69 a_n6000_n557# a_n6000_125# 0.063641f
C70 a_5340_125# a_5340_n557# 0.063641f
C71 a_4962_125# a_5340_125# 0.296258f
C72 a_n5622_n557# a_n6000_n557# 0.296258f
C73 a_5718_125# a_5718_n557# 0.063641f
C74 a_426_125# a_426_n557# 0.063641f
C75 a_n1464_125# a_n1842_125# 0.296258f
C76 a_2694_n557# a_2694_125# 0.063641f
C77 a_4962_125# a_4584_125# 0.296258f
C78 a_5718_n557# a_5340_n557# 0.296258f
C79 a_n5244_n557# a_n5244_125# 0.063641f
C80 a_n1842_n557# a_n2220_n557# 0.296258f
C81 a_n6756_n557# a_n7134_n557# 0.296258f
C82 a_426_125# a_804_125# 0.296258f
C83 a_2694_n557# a_2316_n557# 0.296258f
C84 a_n4110_125# a_n4488_125# 0.296258f
C85 a_1182_n557# a_804_n557# 0.296258f
C86 a_n4866_125# a_n4866_n557# 0.063641f
C87 a_8364_125# a_7986_125# 0.296258f
C88 a_3450_n557# a_3828_n557# 0.296258f
C89 a_n4488_125# a_n4488_n557# 0.063641f
C90 a_4962_n557# a_4584_n557# 0.296258f
C91 a_6852_n557# a_6852_125# 0.063641f
C92 a_n2598_n557# a_n2598_125# 0.063641f
C93 a_4206_n557# a_4584_n557# 0.296258f
C94 a_n7134_125# a_n7134_n557# 0.063641f
C95 a_n7890_125# a_n7890_n557# 0.063641f
C96 a_n6756_n557# a_n6378_n557# 0.296258f
C97 a_n1464_n557# a_n1086_n557# 0.296258f
C98 a_7230_n557# a_7230_125# 0.063641f
C99 a_n3732_n557# a_n4110_n557# 0.296258f
C100 a_n6756_125# a_n6378_125# 0.296258f
C101 a_1182_125# a_1560_125# 0.296258f
C102 a_8742_n557# a_8364_n557# 0.296258f
C103 a_2694_n557# a_3072_n557# 0.296258f
C104 a_8364_125# a_8364_n557# 0.063641f
C105 a_1560_125# a_1560_n557# 0.063641f
C106 a_48_125# a_48_n557# 0.063641f
C107 a_6096_125# a_6474_125# 0.296258f
C108 a_n330_125# a_n330_n557# 0.063641f
C109 a_n1086_125# a_n1086_n557# 0.063641f
C110 a_n5244_125# a_n4866_125# 0.296258f
C111 a_3450_n557# a_3072_n557# 0.296258f
C112 a_n7512_n557# a_n7134_n557# 0.296258f
C113 a_2316_n557# a_1938_n557# 0.296258f
C114 a_48_125# a_426_125# 0.296258f
C115 a_n3354_n557# a_n2976_n557# 0.296258f
C116 a_n3354_n557# a_n3354_125# 0.063641f
C117 a_n6000_n557# a_n6378_n557# 0.296258f
C118 a_7608_n557# a_7230_n557# 0.296258f
C119 a_6474_125# a_6852_125# 0.296258f
C120 a_n7512_n557# a_n7890_n557# 0.296258f
C121 a_1182_125# a_804_125# 0.296258f
C122 a_3450_n557# a_3450_125# 0.063641f
C123 a_n7890_125# a_n7512_125# 0.296258f
C124 a_5718_n557# a_6096_n557# 0.296258f
C125 a_n2976_125# a_n2598_125# 0.296258f
C126 a_n3354_125# a_n3732_125# 0.296258f
C127 a_n9024_n557# a_n9024_125# 0.063641f
C128 a_n6378_125# a_n6000_125# 0.296258f
C129 a_n7512_125# a_n7134_125# 0.296258f
C130 a_n708_n557# a_n708_125# 0.063641f
C131 a_4584_125# a_4206_125# 0.296258f
C132 a_n5244_n557# a_n5622_n557# 0.296258f
C133 a_6096_n557# a_6474_n557# 0.296258f
C134 a_4962_n557# a_5340_n557# 0.296258f
C135 a_4962_125# a_4962_n557# 0.063641f
C136 a_n2220_125# a_n2220_n557# 0.063641f
C137 a_n8268_125# a_n7890_125# 0.296258f
C138 a_n1464_n557# a_n1464_125# 0.063641f
C139 a_n4866_n557# a_n4488_n557# 0.296258f
C140 a_n1842_n557# a_n1842_125# 0.063641f
C141 a_1938_125# a_2316_125# 0.296258f
C142 a_8742_n557# 0 0.562823f
C143 a_8742_125# 0 0.562823f
C144 a_8364_n557# 0 0.354294f
C145 a_8364_125# 0 0.354294f
C146 a_7986_n557# 0 0.354294f
C147 a_7986_125# 0 0.354294f
C148 a_7608_n557# 0 0.354294f
C149 a_7608_125# 0 0.354294f
C150 a_7230_n557# 0 0.354294f
C151 a_7230_125# 0 0.354294f
C152 a_6852_n557# 0 0.354294f
C153 a_6852_125# 0 0.354294f
C154 a_6474_n557# 0 0.354294f
C155 a_6474_125# 0 0.354294f
C156 a_6096_n557# 0 0.354294f
C157 a_6096_125# 0 0.354294f
C158 a_5718_n557# 0 0.354294f
C159 a_5718_125# 0 0.354294f
C160 a_5340_n557# 0 0.354294f
C161 a_5340_125# 0 0.354294f
C162 a_4962_n557# 0 0.354294f
C163 a_4962_125# 0 0.354294f
C164 a_4584_n557# 0 0.354294f
C165 a_4584_125# 0 0.354294f
C166 a_4206_n557# 0 0.354294f
C167 a_4206_125# 0 0.354294f
C168 a_3828_n557# 0 0.354294f
C169 a_3828_125# 0 0.354294f
C170 a_3450_n557# 0 0.354294f
C171 a_3450_125# 0 0.354294f
C172 a_3072_n557# 0 0.354294f
C173 a_3072_125# 0 0.354294f
C174 a_2694_n557# 0 0.354294f
C175 a_2694_125# 0 0.354294f
C176 a_2316_n557# 0 0.354294f
C177 a_2316_125# 0 0.354294f
C178 a_1938_n557# 0 0.354294f
C179 a_1938_125# 0 0.354294f
C180 a_1560_n557# 0 0.354294f
C181 a_1560_125# 0 0.354294f
C182 a_1182_n557# 0 0.354294f
C183 a_1182_125# 0 0.354294f
C184 a_804_n557# 0 0.354294f
C185 a_804_125# 0 0.354294f
C186 a_426_n557# 0 0.354294f
C187 a_426_125# 0 0.354294f
C188 a_48_n557# 0 0.354294f
C189 a_48_125# 0 0.354294f
C190 a_n330_n557# 0 0.354294f
C191 a_n330_125# 0 0.354294f
C192 a_n708_n557# 0 0.354294f
C193 a_n708_125# 0 0.354294f
C194 a_n1086_n557# 0 0.354294f
C195 a_n1086_125# 0 0.354294f
C196 a_n1464_n557# 0 0.354294f
C197 a_n1464_125# 0 0.354294f
C198 a_n1842_n557# 0 0.354294f
C199 a_n1842_125# 0 0.354294f
C200 a_n2220_n557# 0 0.354294f
C201 a_n2220_125# 0 0.354294f
C202 a_n2598_n557# 0 0.354294f
C203 a_n2598_125# 0 0.354294f
C204 a_n2976_n557# 0 0.354294f
C205 a_n2976_125# 0 0.354294f
C206 a_n3354_n557# 0 0.354294f
C207 a_n3354_125# 0 0.354294f
C208 a_n3732_n557# 0 0.354294f
C209 a_n3732_125# 0 0.354294f
C210 a_n4110_n557# 0 0.354294f
C211 a_n4110_125# 0 0.354294f
C212 a_n4488_n557# 0 0.354294f
C213 a_n4488_125# 0 0.354294f
C214 a_n4866_n557# 0 0.354294f
C215 a_n4866_125# 0 0.354294f
C216 a_n5244_n557# 0 0.354294f
C217 a_n5244_125# 0 0.354294f
C218 a_n5622_n557# 0 0.354294f
C219 a_n5622_125# 0 0.354294f
C220 a_n6000_n557# 0 0.354294f
C221 a_n6000_125# 0 0.354294f
C222 a_n6378_n557# 0 0.354294f
C223 a_n6378_125# 0 0.354294f
C224 a_n6756_n557# 0 0.354294f
C225 a_n6756_125# 0 0.354294f
C226 a_n7134_n557# 0 0.354294f
C227 a_n7134_125# 0 0.354294f
C228 a_n7512_n557# 0 0.354294f
C229 a_n7512_125# 0 0.354294f
C230 a_n7890_n557# 0 0.354294f
C231 a_n7890_125# 0 0.354294f
C232 a_n8268_n557# 0 0.354294f
C233 a_n8268_125# 0 0.354294f
C234 a_n8646_n557# 0 0.354294f
C235 a_n8646_125# 0 0.354294f
C236 a_n9024_n557# 0 0.562823f
C237 a_n9024_125# 0 0.562823f
.ends

.subckt sky130_fd_pr__res_xhigh_po_1p41_H3F4MM a_1182_1930# a_n4488_n1826# a_7986_n1826#
+ a_n6378_n2362# a_n7890_5150# a_n7890_n5582# a_7986_5150# a_4584_5150# a_n2598_5150#
+ a_1182_5150# a_8364_1930# a_n6378_1930# a_n4866_n1826# a_n6756_n2362# a_8364_5150#
+ a_n6378_5150# a_n2598_n1826# a_n6000_n5582# a_n4488_n2362# a_n3732_1394# a_7986_n2362#
+ a_3828_1394# a_426_n5582# a_7230_n5582# a_7608_n5582# a_n2976_n1826# a_n4866_n2362#
+ a_n7512_1394# a_n4110_1394# a_804_1394# a_7608_1394# a_4206_1394# a_4206_n1826#
+ a_n1842_1930# a_n4110_n5582# a_804_n5582# a_n2598_n2362# a_48_1930# a_1938_1930#
+ a_5340_n5582# a_n1842_5150# a_5718_n5582# a_48_5150# a_1938_5150# a_n5622_1930#
+ a_n2976_n2362# a_n2220_1930# a_5718_1930# a_3072_n5582# a_2316_1930# a_n9024_n1826#
+ a_6096_1930# a_2316_n1826# a_4206_n2362# a_n2220_n5582# a_n5622_5150# a_n2220_5150#
+ a_5718_5150# a_2316_5150# a_6852_1394# a_n6000_1930# a_6096_5150# a_n4866_1394#
+ a_3450_1394# a_3450_n5582# a_3828_n5582# a_n1464_1394# a_n8268_n5582# a_n6000_5150#
+ a_1182_n5582# a_n7134_n1826# a_n9024_n2362# a_2316_n2362# a_n8646_1394# a_7230_1394#
+ a_n5244_1394# a_8364_n1826# a_4962_1930# a_n2976_1930# a_1560_1930# a_n8646_n5582#
+ a_1560_n5582# a_n7512_n1826# a_1938_n5582# a_6096_n1826# a_n9024_1394# a_4962_5150#
+ a_n2976_5150# a_n6378_n5582# a_n5244_n1826# a_n7134_n2362# a_1560_5150# a_8742_n1826#
+ a_8742_1930# a_n6756_1930# a_5340_1930# a_n3354_1930# a_n330_n1826# a_6474_n1826#
+ a_n708_n1826# a_8364_n2362# a_8742_5150# a_n6756_n5582# a_n6756_5150# a_n5622_n1826#
+ a_5340_5150# a_n7512_n2362# a_48_n1826# a_n7890_1394# a_n3354_5150# a_6096_n2362#
+ a_n7134_1930# a_7986_1394# a_n4488_n5582# a_426_1930# a_4584_1394# a_7986_n5582#
+ a_n3354_n1826# a_n2598_1394# a_6852_n1826# a_n5244_n2362# a_8742_n2362# a_1182_1394#
+ a_n708_1930# a_n7134_5150# a_n1086_n1826# a_426_5150# a_4584_n1826# a_n330_n2362#
+ a_6474_n2362# a_n708_n2362# a_8364_1394# a_n4866_n5582# a_n3732_n1826# a_n6378_1394#
+ a_n5622_n2362# a_48_n2362# a_n708_5150# a_2694_1930# a_n2598_n5582# a_n1464_n1826#
+ a_4962_n1826# a_n3354_n2362# a_6852_n2362# a_2694_5150# a_2694_n1826# a_n1086_n2362#
+ a_4584_n2362# a_6474_1930# a_n2976_n5582# a_n4488_1930# a_n1842_n1826# a_n3732_n2362#
+ a_3072_1930# a_n1086_1930# a_4206_n5582# a_6474_5150# a_n1464_n2362# a_4962_n2362#
+ a_n4488_5150# a_3072_5150# a_n1842_1394# a_n1086_5150# a_n8268_1930# a_48_1394#
+ a_1938_1394# a_2694_n2362# a_n330_1930# a_n1842_n2362# a_n8268_5150# a_n5622_1394#
+ a_n9024_n5582# a_n2220_1394# a_2316_n5582# a_5718_1394# a_n7890_n1826# a_n330_5150#
+ a_2316_1394# a_6096_1394# a_n6000_1394# a_n3732_1930# a_n7134_n5582# a_3828_1930#
+ a_n6000_n1826# a_n7890_n2362# a_n3732_5150# a_8364_n5582# a_426_n1826# a_7230_n1826#
+ a_3828_5150# a_7608_n1826# a_n7512_1930# a_n7512_n5582# a_n4110_1930# a_804_1930#
+ a_7608_1930# a_4962_1394# a_n2976_1394# a_4206_1930# a_1560_1394# a_6096_n5582#
+ a_n7512_5150# a_n5244_n5582# a_n4110_n1826# a_8742_n5582# a_804_n1826# a_n6000_n2362#
+ a_n4110_5150# a_804_5150# a_7608_5150# a_4206_5150# a_8742_1394# a_n6756_1394# a_5340_1394#
+ a_n3354_1394# a_6474_n5582# a_n330_n5582# a_n708_n5582# a_5340_n1826# a_426_n2362#
+ a_5718_n1826# a_7230_n2362# a_7608_n2362# a_n5622_n5582# a_48_n5582# a_3072_n1826#
+ a_n7134_1394# a_n3354_n5582# a_6852_n5582# a_n2220_n1826# a_n4110_n2362# a_804_n2362#
+ a_426_1394# a_6852_1930# a_n4866_1930# a_3450_1930# a_n1464_1930# a_n1086_n5582#
+ a_4584_n5582# a_n708_1394# a_3450_n1826# a_5340_n2362# a_3828_n1826# a_5718_n2362#
+ a_n3732_n5582# a_6852_5150# a_n4866_5150# a_3450_5150# a_n1464_5150# a_n8268_n1826#
+ a_1182_n1826# a_n8646_1930# a_3072_n2362# a_7230_1930# a_n5244_1930# a_n1464_n5582#
+ a_4962_n5582# a_n2220_n2362# a_2694_1394# a_n8646_5150# a_7230_5150# a_2694_n5582#
+ a_n8646_n1826# a_n5244_5150# a_1560_n1826# a_1938_n1826# a_3450_n2362# a_3828_n2362#
+ a_n9024_1930# a_n1842_n5582# a_6474_1394# a_n4488_1394# a_3072_1394# a_n6378_n1826#
+ a_n8268_n2362# a_n1086_1394# a_1182_n2362# a_n9024_5150# a_n8268_1394# a_n7890_1930#
+ a_n6756_n1826# a_n8646_n2362# a_1560_n2362# a_1938_n2362# a_7986_1930# 0 a_4584_1930#
+ a_n2598_1930# a_n330_1394#
X0 a_n1464_n2362# a_n1464_n5582# 0 sky130_fd_pr__res_xhigh_po_1p41 l=14.1
X1 a_n3732_n2362# a_n3732_n5582# 0 sky130_fd_pr__res_xhigh_po_1p41 l=14.1
X2 a_426_n2362# a_426_n5582# 0 sky130_fd_pr__res_xhigh_po_1p41 l=14.1
X3 a_n4110_5150# a_n4110_1930# 0 sky130_fd_pr__res_xhigh_po_1p41 l=14.1
X4 a_n5244_5150# a_n5244_1930# 0 sky130_fd_pr__res_xhigh_po_1p41 l=14.1
X5 a_n2598_5150# a_n2598_1930# 0 sky130_fd_pr__res_xhigh_po_1p41 l=14.1
X6 a_3072_5150# a_3072_1930# 0 sky130_fd_pr__res_xhigh_po_1p41 l=14.1
X7 a_3828_5150# a_3828_1930# 0 sky130_fd_pr__res_xhigh_po_1p41 l=14.1
X8 a_4962_5150# a_4962_1930# 0 sky130_fd_pr__res_xhigh_po_1p41 l=14.1
X9 a_n9024_1394# a_n9024_n1826# 0 sky130_fd_pr__res_xhigh_po_1p41 l=14.1
X10 a_6474_1394# a_6474_n1826# 0 sky130_fd_pr__res_xhigh_po_1p41 l=14.1
X11 a_n8268_5150# a_n8268_1930# 0 sky130_fd_pr__res_xhigh_po_1p41 l=14.1
X12 a_8742_1394# a_8742_n1826# 0 sky130_fd_pr__res_xhigh_po_1p41 l=14.1
X13 a_5718_1394# a_5718_n1826# 0 sky130_fd_pr__res_xhigh_po_1p41 l=14.1
X14 a_n330_1394# a_n330_n1826# 0 sky130_fd_pr__res_xhigh_po_1p41 l=14.1
X15 a_n9024_n2362# a_n9024_n5582# 0 sky130_fd_pr__res_xhigh_po_1p41 l=14.1
X16 a_3072_1394# a_3072_n1826# 0 sky130_fd_pr__res_xhigh_po_1p41 l=14.1
X17 a_n7890_1394# a_n7890_n1826# 0 sky130_fd_pr__res_xhigh_po_1p41 l=14.1
X18 a_n5622_5150# a_n5622_1930# 0 sky130_fd_pr__res_xhigh_po_1p41 l=14.1
X19 a_5340_1394# a_5340_n1826# 0 sky130_fd_pr__res_xhigh_po_1p41 l=14.1
X20 a_2316_1394# a_2316_n1826# 0 sky130_fd_pr__res_xhigh_po_1p41 l=14.1
X21 a_n1086_5150# a_n1086_1930# 0 sky130_fd_pr__res_xhigh_po_1p41 l=14.1
X22 a_6096_5150# a_6096_1930# 0 sky130_fd_pr__res_xhigh_po_1p41 l=14.1
X23 a_6474_n2362# a_6474_n5582# 0 sky130_fd_pr__res_xhigh_po_1p41 l=14.1
X24 a_8742_n2362# a_8742_n5582# 0 sky130_fd_pr__res_xhigh_po_1p41 l=14.1
X25 a_5718_n2362# a_5718_n5582# 0 sky130_fd_pr__res_xhigh_po_1p41 l=14.1
X26 a_n330_n2362# a_n330_n5582# 0 sky130_fd_pr__res_xhigh_po_1p41 l=14.1
X27 a_7986_5150# a_7986_1930# 0 sky130_fd_pr__res_xhigh_po_1p41 l=14.1
X28 a_n4488_1394# a_n4488_n1826# 0 sky130_fd_pr__res_xhigh_po_1p41 l=14.1
X29 a_n2976_5150# a_n2976_1930# 0 sky130_fd_pr__res_xhigh_po_1p41 l=14.1
X30 a_2316_5150# a_2316_1930# 0 sky130_fd_pr__res_xhigh_po_1p41 l=14.1
X31 a_n6756_1394# a_n6756_n1826# 0 sky130_fd_pr__res_xhigh_po_1p41 l=14.1
X32 a_426_5150# a_426_1930# 0 sky130_fd_pr__res_xhigh_po_1p41 l=14.1
X33 a_3450_5150# a_3450_1930# 0 sky130_fd_pr__res_xhigh_po_1p41 l=14.1
X34 a_3072_n2362# a_3072_n5582# 0 sky130_fd_pr__res_xhigh_po_1p41 l=14.1
X35 a_n7890_n2362# a_n7890_n5582# 0 sky130_fd_pr__res_xhigh_po_1p41 l=14.1
X36 a_5340_n2362# a_5340_n5582# 0 sky130_fd_pr__res_xhigh_po_1p41 l=14.1
X37 a_2316_n2362# a_2316_n5582# 0 sky130_fd_pr__res_xhigh_po_1p41 l=14.1
X38 a_n1086_1394# a_n1086_n1826# 0 sky130_fd_pr__res_xhigh_po_1p41 l=14.1
X39 a_n3354_1394# a_n3354_n1826# 0 sky130_fd_pr__res_xhigh_po_1p41 l=14.1
X40 a_n4488_n2362# a_n4488_n5582# 0 sky130_fd_pr__res_xhigh_po_1p41 l=14.1
X41 a_n5622_1394# a_n5622_n1826# 0 sky130_fd_pr__res_xhigh_po_1p41 l=14.1
X42 a_n6756_n2362# a_n6756_n5582# 0 sky130_fd_pr__res_xhigh_po_1p41 l=14.1
X43 a_n1086_n2362# a_n1086_n5582# 0 sky130_fd_pr__res_xhigh_po_1p41 l=14.1
X44 a_n8646_5150# a_n8646_1930# 0 sky130_fd_pr__res_xhigh_po_1p41 l=14.1
X45 a_n3354_n2362# a_n3354_n5582# 0 sky130_fd_pr__res_xhigh_po_1p41 l=14.1
X46 a_n5622_n2362# a_n5622_n5582# 0 sky130_fd_pr__res_xhigh_po_1p41 l=14.1
X47 a_n6000_5150# a_n6000_1930# 0 sky130_fd_pr__res_xhigh_po_1p41 l=14.1
X48 a_6474_5150# a_6474_1930# 0 sky130_fd_pr__res_xhigh_po_1p41 l=14.1
X49 a_n1464_5150# a_n1464_1930# 0 sky130_fd_pr__res_xhigh_po_1p41 l=14.1
X50 a_804_5150# a_804_1930# 0 sky130_fd_pr__res_xhigh_po_1p41 l=14.1
X51 a_n7134_5150# a_n7134_1930# 0 sky130_fd_pr__res_xhigh_po_1p41 l=14.1
X52 a_6096_1394# a_6096_n1826# 0 sky130_fd_pr__res_xhigh_po_1p41 l=14.1
X53 a_n4488_5150# a_n4488_1930# 0 sky130_fd_pr__res_xhigh_po_1p41 l=14.1
X54 a_8364_1394# a_8364_n1826# 0 sky130_fd_pr__res_xhigh_po_1p41 l=14.1
X55 a_7608_1394# a_7608_n1826# 0 sky130_fd_pr__res_xhigh_po_1p41 l=14.1
X56 a_n1842_5150# a_n1842_1930# 0 sky130_fd_pr__res_xhigh_po_1p41 l=14.1
X57 a_5718_5150# a_5718_1930# 0 sky130_fd_pr__res_xhigh_po_1p41 l=14.1
X58 a_6852_5150# a_6852_1930# 0 sky130_fd_pr__res_xhigh_po_1p41 l=14.1
X59 a_6096_n2362# a_6096_n5582# 0 sky130_fd_pr__res_xhigh_po_1p41 l=14.1
X60 a_7230_1394# a_7230_n1826# 0 sky130_fd_pr__res_xhigh_po_1p41 l=14.1
X61 a_4206_1394# a_4206_n1826# 0 sky130_fd_pr__res_xhigh_po_1p41 l=14.1
X62 a_8364_n2362# a_8364_n5582# 0 sky130_fd_pr__res_xhigh_po_1p41 l=14.1
X63 a_7608_n2362# a_7608_n5582# 0 sky130_fd_pr__res_xhigh_po_1p41 l=14.1
X64 a_n6378_1394# a_n6378_n1826# 0 sky130_fd_pr__res_xhigh_po_1p41 l=14.1
X65 a_n8646_1394# a_n8646_n1826# 0 sky130_fd_pr__res_xhigh_po_1p41 l=14.1
X66 a_7230_n2362# a_7230_n5582# 0 sky130_fd_pr__res_xhigh_po_1p41 l=14.1
X67 a_4206_n2362# a_4206_n5582# 0 sky130_fd_pr__res_xhigh_po_1p41 l=14.1
X68 a_n2220_1394# a_n2220_n1826# 0 sky130_fd_pr__res_xhigh_po_1p41 l=14.1
X69 a_n5244_1394# a_n5244_n1826# 0 sky130_fd_pr__res_xhigh_po_1p41 l=14.1
X70 a_n6378_n2362# a_n6378_n5582# 0 sky130_fd_pr__res_xhigh_po_1p41 l=14.1
X71 a_n7512_1394# a_n7512_n1826# 0 sky130_fd_pr__res_xhigh_po_1p41 l=14.1
X72 a_n7512_5150# a_n7512_1930# 0 sky130_fd_pr__res_xhigh_po_1p41 l=14.1
X73 a_n8646_n2362# a_n8646_n5582# 0 sky130_fd_pr__res_xhigh_po_1p41 l=14.1
X74 a_2694_1394# a_2694_n1826# 0 sky130_fd_pr__res_xhigh_po_1p41 l=14.1
X75 a_n4866_5150# a_n4866_1930# 0 sky130_fd_pr__res_xhigh_po_1p41 l=14.1
X76 a_4206_5150# a_4206_1930# 0 sky130_fd_pr__res_xhigh_po_1p41 l=14.1
X77 a_4962_1394# a_4962_n1826# 0 sky130_fd_pr__res_xhigh_po_1p41 l=14.1
X78 a_1938_1394# a_1938_n1826# 0 sky130_fd_pr__res_xhigh_po_1p41 l=14.1
X79 a_5340_5150# a_5340_1930# 0 sky130_fd_pr__res_xhigh_po_1p41 l=14.1
X80 a_n2220_n2362# a_n2220_n5582# 0 sky130_fd_pr__res_xhigh_po_1p41 l=14.1
X81 a_n5244_n2362# a_n5244_n5582# 0 sky130_fd_pr__res_xhigh_po_1p41 l=14.1
X82 a_n7512_n2362# a_n7512_n5582# 0 sky130_fd_pr__res_xhigh_po_1p41 l=14.1
X83 a_n330_5150# a_n330_1930# 0 sky130_fd_pr__res_xhigh_po_1p41 l=14.1
X84 a_2694_5150# a_2694_1930# 0 sky130_fd_pr__res_xhigh_po_1p41 l=14.1
X85 a_1560_1394# a_1560_n1826# 0 sky130_fd_pr__res_xhigh_po_1p41 l=14.1
X86 a_2694_n2362# a_2694_n5582# 0 sky130_fd_pr__res_xhigh_po_1p41 l=14.1
X87 a_4962_n2362# a_4962_n5582# 0 sky130_fd_pr__res_xhigh_po_1p41 l=14.1
X88 a_1938_n2362# a_1938_n5582# 0 sky130_fd_pr__res_xhigh_po_1p41 l=14.1
X89 a_48_1394# a_48_n1826# 0 sky130_fd_pr__res_xhigh_po_1p41 l=14.1
X90 a_n2976_1394# a_n2976_n1826# 0 sky130_fd_pr__res_xhigh_po_1p41 l=14.1
X91 a_1560_n2362# a_1560_n5582# 0 sky130_fd_pr__res_xhigh_po_1p41 l=14.1
X92 a_48_n2362# a_48_n5582# 0 sky130_fd_pr__res_xhigh_po_1p41 l=14.1
X93 a_n7890_5150# a_n7890_1930# 0 sky130_fd_pr__res_xhigh_po_1p41 l=14.1
X94 a_n1842_1394# a_n1842_n1826# 0 sky130_fd_pr__res_xhigh_po_1p41 l=14.1
X95 a_n2220_5150# a_n2220_1930# 0 sky130_fd_pr__res_xhigh_po_1p41 l=14.1
X96 a_n2976_n2362# a_n2976_n5582# 0 sky130_fd_pr__res_xhigh_po_1p41 l=14.1
X97 a_n3354_5150# a_n3354_1930# 0 sky130_fd_pr__res_xhigh_po_1p41 l=14.1
X98 a_8364_5150# a_8364_1930# 0 sky130_fd_pr__res_xhigh_po_1p41 l=14.1
X99 a_804_1394# a_804_n1826# 0 sky130_fd_pr__res_xhigh_po_1p41 l=14.1
X100 a_1182_5150# a_1182_1930# 0 sky130_fd_pr__res_xhigh_po_1p41 l=14.1
X101 a_n1842_n2362# a_n1842_n5582# 0 sky130_fd_pr__res_xhigh_po_1p41 l=14.1
X102 a_1938_5150# a_1938_1930# 0 sky130_fd_pr__res_xhigh_po_1p41 l=14.1
X103 a_804_n2362# a_804_n5582# 0 sky130_fd_pr__res_xhigh_po_1p41 l=14.1
X104 a_n708_5150# a_n708_1930# 0 sky130_fd_pr__res_xhigh_po_1p41 l=14.1
X105 a_48_5150# a_48_1930# 0 sky130_fd_pr__res_xhigh_po_1p41 l=14.1
X106 a_n9024_5150# a_n9024_1930# 0 sky130_fd_pr__res_xhigh_po_1p41 l=14.1
X107 a_n8268_1394# a_n8268_n1826# 0 sky130_fd_pr__res_xhigh_po_1p41 l=14.1
X108 a_n6378_5150# a_n6378_1930# 0 sky130_fd_pr__res_xhigh_po_1p41 l=14.1
X109 a_n3732_5150# a_n3732_1930# 0 sky130_fd_pr__res_xhigh_po_1p41 l=14.1
X110 a_7608_5150# a_7608_1930# 0 sky130_fd_pr__res_xhigh_po_1p41 l=14.1
X111 a_8742_5150# a_8742_1930# 0 sky130_fd_pr__res_xhigh_po_1p41 l=14.1
X112 a_7986_1394# a_7986_n1826# 0 sky130_fd_pr__res_xhigh_po_1p41 l=14.1
X113 a_n4110_1394# a_n4110_n1826# 0 sky130_fd_pr__res_xhigh_po_1p41 l=14.1
X114 a_n7134_1394# a_n7134_n1826# 0 sky130_fd_pr__res_xhigh_po_1p41 l=14.1
X115 a_n8268_n2362# a_n8268_n5582# 0 sky130_fd_pr__res_xhigh_po_1p41 l=14.1
X116 a_4584_1394# a_4584_n1826# 0 sky130_fd_pr__res_xhigh_po_1p41 l=14.1
X117 a_1560_5150# a_1560_1930# 0 sky130_fd_pr__res_xhigh_po_1p41 l=14.1
X118 a_6852_1394# a_6852_n1826# 0 sky130_fd_pr__res_xhigh_po_1p41 l=14.1
X119 a_3828_1394# a_3828_n1826# 0 sky130_fd_pr__res_xhigh_po_1p41 l=14.1
X120 a_7986_n2362# a_7986_n5582# 0 sky130_fd_pr__res_xhigh_po_1p41 l=14.1
X121 a_n4110_n2362# a_n4110_n5582# 0 sky130_fd_pr__res_xhigh_po_1p41 l=14.1
X122 a_n7134_n2362# a_n7134_n5582# 0 sky130_fd_pr__res_xhigh_po_1p41 l=14.1
X123 a_n708_1394# a_n708_n1826# 0 sky130_fd_pr__res_xhigh_po_1p41 l=14.1
X124 a_1182_1394# a_1182_n1826# 0 sky130_fd_pr__res_xhigh_po_1p41 l=14.1
X125 a_n6000_1394# a_n6000_n1826# 0 sky130_fd_pr__res_xhigh_po_1p41 l=14.1
X126 a_3450_1394# a_3450_n1826# 0 sky130_fd_pr__res_xhigh_po_1p41 l=14.1
X127 a_4584_n2362# a_4584_n5582# 0 sky130_fd_pr__res_xhigh_po_1p41 l=14.1
X128 a_6852_n2362# a_6852_n5582# 0 sky130_fd_pr__res_xhigh_po_1p41 l=14.1
X129 a_3828_n2362# a_3828_n5582# 0 sky130_fd_pr__res_xhigh_po_1p41 l=14.1
X130 a_n2598_1394# a_n2598_n1826# 0 sky130_fd_pr__res_xhigh_po_1p41 l=14.1
X131 a_n708_n2362# a_n708_n5582# 0 sky130_fd_pr__res_xhigh_po_1p41 l=14.1
X132 a_n4866_1394# a_n4866_n1826# 0 sky130_fd_pr__res_xhigh_po_1p41 l=14.1
X133 a_n6756_5150# a_n6756_1930# 0 sky130_fd_pr__res_xhigh_po_1p41 l=14.1
X134 a_1182_n2362# a_1182_n5582# 0 sky130_fd_pr__res_xhigh_po_1p41 l=14.1
X135 a_n6000_n2362# a_n6000_n5582# 0 sky130_fd_pr__res_xhigh_po_1p41 l=14.1
X136 a_7230_5150# a_7230_1930# 0 sky130_fd_pr__res_xhigh_po_1p41 l=14.1
X137 a_3450_n2362# a_3450_n5582# 0 sky130_fd_pr__res_xhigh_po_1p41 l=14.1
X138 a_n1464_1394# a_n1464_n1826# 0 sky130_fd_pr__res_xhigh_po_1p41 l=14.1
X139 a_4584_5150# a_4584_1930# 0 sky130_fd_pr__res_xhigh_po_1p41 l=14.1
X140 a_n2598_n2362# a_n2598_n5582# 0 sky130_fd_pr__res_xhigh_po_1p41 l=14.1
X141 a_n3732_1394# a_n3732_n1826# 0 sky130_fd_pr__res_xhigh_po_1p41 l=14.1
X142 a_n4866_n2362# a_n4866_n5582# 0 sky130_fd_pr__res_xhigh_po_1p41 l=14.1
X143 a_426_1394# a_426_n1826# 0 sky130_fd_pr__res_xhigh_po_1p41 l=14.1
C0 a_n4866_n2362# a_n4488_n2362# 0.296258f
C1 a_48_1394# a_48_1930# 0.180952f
C2 a_7230_5150# a_7608_5150# 0.296258f
C3 a_5718_1394# a_5340_1394# 0.296258f
C4 a_n2976_1930# a_n3354_1930# 0.296258f
C5 a_2316_1394# a_2694_1394# 0.296258f
C6 a_n1464_1394# a_n1842_1394# 0.296258f
C7 a_2694_n2362# a_2316_n2362# 0.296258f
C8 a_n1464_n1826# a_n1086_n1826# 0.296258f
C9 a_3828_n5582# a_3450_n5582# 0.296258f
C10 a_n5622_1394# a_n6000_1394# 0.296258f
C11 a_4206_n5582# a_4584_n5582# 0.296258f
C12 a_7230_n2362# a_6852_n2362# 0.296258f
C13 a_n2976_n2362# a_n2598_n2362# 0.296258f
C14 a_7986_1930# a_7608_1930# 0.296258f
C15 a_n7512_1394# a_n7134_1394# 0.296258f
C16 a_8742_5150# a_8364_5150# 0.296258f
C17 a_4962_5150# a_4584_5150# 0.296258f
C18 a_1182_n1826# a_1560_n1826# 0.296258f
C19 a_426_1930# a_48_1930# 0.296258f
C20 a_n7134_n1826# a_n6756_n1826# 0.296258f
C21 a_4962_n1826# a_4584_n1826# 0.296258f
C22 a_n3354_n5582# a_n2976_n5582# 0.296258f
C23 a_n2220_n2362# a_n2220_n1826# 0.180952f
C24 a_804_n2362# a_1182_n2362# 0.296258f
C25 a_48_n1826# a_n330_n1826# 0.296258f
C26 a_7230_n1826# a_6852_n1826# 0.296258f
C27 a_n2976_1394# a_n2976_1930# 0.180952f
C28 a_n1842_n5582# a_n1464_n5582# 0.296258f
C29 a_3450_n1826# a_3450_n2362# 0.180952f
C30 a_4206_n1826# a_4584_n1826# 0.296258f
C31 a_n4110_n2362# a_n4110_n1826# 0.180952f
C32 a_1182_n1826# a_1182_n2362# 0.180952f
C33 a_n7512_5150# a_n7134_5150# 0.296258f
C34 a_3828_n1826# a_3450_n1826# 0.296258f
C35 a_n6000_n5582# a_n6378_n5582# 0.296258f
C36 a_n8268_1394# a_n8646_1394# 0.296258f
C37 a_n708_n2362# a_n708_n1826# 0.180952f
C38 a_n9024_1394# a_n9024_1930# 0.180952f
C39 a_n708_1394# a_n330_1394# 0.296258f
C40 a_1938_1394# a_1938_1930# 0.180952f
C41 a_n5622_n5582# a_n5244_n5582# 0.296258f
C42 a_n7890_n1826# a_n8268_n1826# 0.296258f
C43 a_3072_n1826# a_3072_n2362# 0.180952f
C44 a_3450_5150# a_3072_5150# 0.296258f
C45 a_n2598_n5582# a_n2220_n5582# 0.296258f
C46 a_n6378_1930# a_n6756_1930# 0.296258f
C47 a_n4110_n2362# a_n4488_n2362# 0.296258f