* PEX produced on dom 21 abr 2024 23:23:20 -03 using ./iic-pex.sh with m=3 and s=1
* NGSPICE file created from sky130_vbl_ip__overvoltage.ext - technology: sky130A

.subckt sky130_vbl_ip__overvoltage vtrip[3] vtrip[2] ovout vtrip[0] vbg ibias ena
+ vtrip[1] dvss dvdd avdd avss
X0 dvss.t73 dvss.t71 dvss.t72 dvss.t31 sky130_fd_pr__nfet_g5v0d10v5 ad=0.377 pd=3.18 as=0 ps=0 w=1.3 l=1
X1 multiplexer_0.trans_gate_m_31.out.t4 multiplexer_0.vtrip_1.t2 multiplexer_0.trans_gate_m_29.in.t5 avss.t217 sky130_fd_pr__nfet_g5v0d10v5 ad=0.29 pd=2.58 as=0.29 ps=2.58 w=1 l=3
X2 avss.t44 multiplexer_0.vtrip_1_b.t2 sky130_fd_pr__diode_pw2nd_05v5 perim=2.3e+06 area=3.15e+11
**devattr s=515385786,232366 d=515385786,232366
X3 a_n15874_n447.t1 a_n12654_n447.t1 avss.t5 sky130_fd_pr__res_xhigh_po_1p41 l=14.1
X4 a_n12118_12027.t1 a_n8898_11649.t1 avss.t10 sky130_fd_pr__res_xhigh_po_1p41 l=14.1
X5 dvss.t70 dvss.t68 dvss.t69 dvss.t31 sky130_fd_pr__nfet_g5v0d10v5 ad=0.377 pd=3.18 as=0 ps=0 w=1.3 l=1
X6 avss.t218 avss.t219 avss.t0 sky130_fd_pr__res_xhigh_po_1p41 l=1.41
X7 avss.t33 avss.t34 avss.t13 sky130_fd_pr__res_xhigh_po_1p41 l=14.1
X8 comp_hyst_0.net3.t3 comp_hyst_0.net4.t11 dvdd.t12 dvdd.t6 sky130_fd_pr__pfet_01v8 ad=0.29 pd=2.58 as=0.29 ps=2.58 w=1 l=8
X9 avss.t19 avss.t20 avss.t14 sky130_fd_pr__res_xhigh_po_1p41 l=1.41
X10 avss.t88 avss.t89 avss.t0 sky130_fd_pr__res_xhigh_po_1p41 l=1.41
X11 avss.t247 level_shifter_3.in_b.t2 multiplexer_0.vtrip_3.t1 avss.t31 sky130_fd_pr__nfet_g5v0d10v5 ad=0.58 pd=4.58 as=0.58 ps=4.58 w=2 l=3
X12 a_n8362_4845.t0 multiplexer_0.in_0110.t1 avss.t13 sky130_fd_pr__res_xhigh_po_1p41 l=14.1
X13 a_n15874_8625.t1 a_n12654_9003.t0 avss.t5 sky130_fd_pr__res_xhigh_po_1p41 l=14.1
X14 avss.t131 multiplexer_0.vtrip_2.t2 sky130_fd_pr__diode_pw2nd_05v5 perim=2.3e+06 area=3.15e+11
**devattr s=515385786,232366 d=515385786,232366
X15 a_n12118_9759.t0 a_n8898_9381.t0 avss.t10 sky130_fd_pr__res_xhigh_po_1p41 l=14.1
X16 multiplexer_0.in_1100.t0 multiplexer_0.in_1101.t2 avss.t13 sky130_fd_pr__res_xhigh_po_1p41 l=14.1
X17 dvss.t67 dvss.t65 dvss.t66 dvss.t31 sky130_fd_pr__nfet_g5v0d10v5 ad=0.29 pd=2.58 as=0 ps=0 w=1 l=1
X18 a_n15874_6357.t0 a_n12654_5979.t1 avss.t5 sky130_fd_pr__res_xhigh_po_1p41 l=14.1
X19 level_shifter_0.in_b.t0 vtrip[0].t0 dvdd.t5 dvdd.t4 sky130_fd_pr__pfet_01v8 ad=0.29 pd=2.58 as=0.29 ps=2.58 w=1 l=3
X20 dvdd.t113 dvdd.t111 dvdd.t112 dvdd.t6 sky130_fd_pr__pfet_01v8 ad=0.29 pd=2.58 as=0 ps=0 w=1 l=8
X21 multiplexer_0.trans_gate_m_37.out.t5 multiplexer_0.vtrip_2.t3 multiplexer_0.trans_gate_m_32.in.t3 avdd.t31 sky130_fd_pr__pfet_g5v0d10v5 ad=0.29 pd=2.58 as=0.29 ps=2.58 w=1 l=3
X22 multiplexer_0.trans_gate_m_21.in.t0 multiplexer_0.vtrip_0.t2 multiplexer_0.in_1011.t0 avss.t101 sky130_fd_pr__nfet_g5v0d10v5 ad=0.29 pd=2.58 as=0.29 ps=2.58 w=1 l=3
X23 avss.t142 vtrip[1].t0 multiplexer_0.vtrip_1_b.t0 avss.t31 sky130_fd_pr__nfet_g5v0d10v5 ad=0.58 pd=4.58 as=0.58 ps=4.58 w=2 l=3
X24 dvss.t20 comp_hyst_0.net5.t5 comp_hyst_0.net1.t0 dvss.t19 sky130_fd_pr__nfet_01v8 ad=0.29 pd=2.58 as=0.29 ps=2.58 w=1 l=20
X25 avss.t172 avss.t173 avss.t0 sky130_fd_pr__res_xhigh_po_1p41 l=1.41
X26 multiplexer_0.trans_gate_m_29.in.t1 multiplexer_0.vtrip_0.t3 multiplexer_0.in_0010.t0 avdd.t8 sky130_fd_pr__pfet_g5v0d10v5 ad=0.29 pd=2.58 as=0.29 ps=2.58 w=1 l=3
X27 avss.t73 multiplexer_0.vtrip_0_b.t2 sky130_fd_pr__diode_pw2nd_05v5 perim=2.3e+06 area=3.15e+11
**devattr s=515385786,232366 d=515385786,232366
X28 a_n12118_2955.t1 a_n8898_3333.t0 avss.t10 sky130_fd_pr__res_xhigh_po_1p41 l=14.1
X29 avss.t212 avss.t213 avss.t0 sky130_fd_pr__res_xhigh_po_1p41 l=1.41
X30 avss.t127 avss.t128 avss.t14 sky130_fd_pr__res_xhigh_po_1p41 l=1.41
X31 voltage_divider_0.51.t1 multiplexer_0.in_0000.t1 avss.t13 sky130_fd_pr__res_xhigh_po_1p41 l=14.1
X32 avss.t42 avss.t43 avss.t14 sky130_fd_pr__res_xhigh_po_1p41 l=1.41
X33 comp_hyst_0.net1.t1 vin.t4 comp_hyst_0.net3.t0 dvss.t2 sky130_fd_pr__nfet_g5v0d10v5 ad=0.377 pd=3.18 as=0.377 ps=3.18 w=1.3 l=8
X34 a_n15874_13161.t0 a_n12654_13539.t0 avss.t5 sky130_fd_pr__res_xhigh_po_1p41 l=14.1
X35 multiplexer_0.trans_gate_m_23.in.t3 multiplexer_0.vtrip_0_b.t3 multiplexer_0.in_1001.t3 avdd.t7 sky130_fd_pr__pfet_g5v0d10v5 ad=0.29 pd=2.58 as=0.29 ps=2.58 w=1 l=3
X36 a_n8362_13161.t0 a_n5142_12783.t1 avss.t13 sky130_fd_pr__res_xhigh_po_1p41 l=14.1
X37 avss.t170 avss.t171 avss.t0 sky130_fd_pr__res_xhigh_po_1p41 l=1.41
X38 avss.t95 avss.t96 avss.t14 sky130_fd_pr__res_xhigh_po_1p41 l=1.41
X39 a_n12118_7491.t0 a_n8898_7113.t1 avss.t10 sky130_fd_pr__res_xhigh_po_1p41 l=14.1
X40 multiplexer_0.trans_gate_m_32.in.t1 multiplexer_0.vtrip_1.t3 multiplexer_0.trans_gate_m_23.in.t2 avdd.t23 sky130_fd_pr__pfet_g5v0d10v5 ad=0.29 pd=2.58 as=0.29 ps=2.58 w=1 l=3
X41 multiplexer_0.vtrip_2.t0 multiplexer_0.vtrip_2_b.t2 avdd.t2 avdd.t1 sky130_fd_pr__pfet_g5v0d10v5 ad=0.29 pd=2.58 as=0.29 ps=2.58 w=1 l=3
X42 avss.t99 avss.t100 avss.t0 sky130_fd_pr__res_xhigh_po_1p41 l=1.41
X43 dvdd.t110 dvdd.t108 dvdd.t109 dvdd.t60 sky130_fd_pr__pfet_01v8 ad=0.29 pd=2.58 as=0 ps=0 w=1 l=1
X44 a_n15874_3333.t0 a_n12654_3711.t0 avss.t5 sky130_fd_pr__res_xhigh_po_1p41 l=14.1
X45 a_n8898_n447.t1 a_n5142_n825.t1 avss.t13 sky130_fd_pr__res_xhigh_po_1p41 l=14.1
X46 comp_hyst_0.net1.t3 vbg.t0 comp_hyst_0.net4.t8 dvss.t2 sky130_fd_pr__nfet_g5v0d10v5 ad=0.377 pd=3.18 as=0.377 ps=3.18 w=1.3 l=8
X47 avss.t168 avss.t169 avss.t0 sky130_fd_pr__res_xhigh_po_1p41 l=1.41
X48 avss.t84 avss.t85 avss.t0 sky130_fd_pr__res_xhigh_po_1p41 l=1.41
X49 avss.t185 level_shifter_0.in_b.t2 multiplexer_0.vtrip_0.t1 avss.t31 sky130_fd_pr__nfet_g5v0d10v5 ad=0.58 pd=4.58 as=0.58 ps=4.58 w=2 l=3
X50 a_n12118_10515.t1 a_n8898_10893.t1 avss.t10 sky130_fd_pr__res_xhigh_po_1p41 l=14.1
X51 comp_hyst_0.net4.t10 comp_hyst_0.net3.t9 dvdd.t120 dvdd.t18 sky130_fd_pr__pfet_01v8 ad=0.29 pd=2.58 as=0.29 ps=2.58 w=1 l=16
X52 a_n8362_8625.t0 multiplexer_0.in_0000.t2 avss.t13 sky130_fd_pr__res_xhigh_po_1p41 l=14.1
X53 multiplexer_0.in_0100.t0 a_n5142_5979.t0 avss.t13 sky130_fd_pr__res_xhigh_po_1p41 l=14.1
X54 dvdd.t107 dvdd.t105 dvdd.t106 dvdd.t30 sky130_fd_pr__pfet_01v8 ad=0.29 pd=2.58 as=0 ps=0 w=1 l=1
X55 a_n15874_10893.t1 a_n12654_11271.t1 avss.t5 sky130_fd_pr__res_xhigh_po_1p41 l=14.1
X56 comp_hyst_0.net1.t2 vin.t5 comp_hyst_0.net3.t1 dvss.t2 sky130_fd_pr__nfet_g5v0d10v5 ad=0.377 pd=3.18 as=0.377 ps=3.18 w=1.3 l=8
X57 multiplexer_0.trans_gate_m_27.in.t1 multiplexer_0.vtrip_0.t4 multiplexer_0.in_0101.t0 avss.t191 sky130_fd_pr__nfet_g5v0d10v5 ad=0.29 pd=2.58 as=0.29 ps=2.58 w=1 l=3
X58 avss.t74 avss.t75 avss.t14 sky130_fd_pr__res_xhigh_po_1p41 l=1.41
X59 comp_hyst_0.net1.t4 vbg.t1 comp_hyst_0.net4.t9 dvss.t2 sky130_fd_pr__nfet_g5v0d10v5 ad=0.377 pd=3.18 as=0.377 ps=3.18 w=1.3 l=8
X60 avss.t125 avss.t126 avss.t0 sky130_fd_pr__res_xhigh_po_1p41 l=1.41
X61 a_n8362_10137.t1 a_n5142_9759.t1 avss.t13 sky130_fd_pr__res_xhigh_po_1p41 l=14.1
X62 a_n12118_6735.t0 a_n8898_7113.t0 avss.t10 sky130_fd_pr__res_xhigh_po_1p41 l=14.1
X63 multiplexer_0.trans_gate_m_28.in.t5 multiplexer_0.vtrip_1_b.t3 multiplexer_0.trans_gate_m_27.in.t5 avss.t188 sky130_fd_pr__nfet_g5v0d10v5 ad=0.29 pd=2.58 as=0.29 ps=2.58 w=1 l=3
X64 avss.t81 ena.t0 a_n5142_n1959.t0 avss.t80 sky130_fd_pr__nfet_g5v0d10v5 ad=0.87 pd=6.58 as=0.87 ps=6.58 w=3 l=3
X65 dvdd.t104 dvdd.t102 dvdd.t103 dvdd.t30 sky130_fd_pr__pfet_01v8 ad=0.29 pd=2.58 as=0 ps=0 w=1 l=1
X66 a_n12118_4467.t1 a_n8898_4089.t1 avss.t10 sky130_fd_pr__res_xhigh_po_1p41 l=14.1
X67 avss.t82 avss.t83 avss.t0 sky130_fd_pr__res_xhigh_po_1p41 l=1.41
X68 dvss.t64 dvss.t62 dvss.t63 dvss.t2 sky130_fd_pr__nfet_g5v0d10v5 ad=0.29 pd=2.58 as=0 ps=0 w=1 l=8
X69 a_n15874_1065.t0 a_n12654_1065.t0 avss.t5 sky130_fd_pr__res_xhigh_po_1p41 l=14.1
X70 multiplexer_0.vtrip_3.t0 multiplexer_0.vtrip_3_b.t2 avdd.t27 avdd.t24 sky130_fd_pr__pfet_g5v0d10v5 ad=0.29 pd=2.58 as=0.29 ps=2.58 w=1 l=3
X71 vin.t3 multiplexer_0.vtrip_3_b.t3 multiplexer_0.trans_gate_m_33.in.t2 avss.t246 sky130_fd_pr__nfet_g5v0d10v5 ad=0.29 pd=2.58 as=0.29 ps=2.58 w=1 l=3
X72 avss.t189 multiplexer_0.vtrip_1_b.t4 sky130_fd_pr__diode_pw2nd_05v5 perim=2.3e+06 area=3.15e+11
**devattr s=515385786,232366 d=515385786,232366
X73 avss.t123 avss.t124 avss.t14 sky130_fd_pr__res_xhigh_po_1p41 l=1.41
X74 a_n8362_13917.t0 a_n5142_14295.t0 avss.t13 sky130_fd_pr__res_xhigh_po_1p41 l=14.1
X75 dvdd.t101 dvdd.t99 dvdd.t100 dvdd.t30 sky130_fd_pr__pfet_01v8 ad=0.29 pd=2.58 as=0 ps=0 w=1 l=1
X76 multiplexer_0.trans_gate_m_33.in.t5 multiplexer_0.vtrip_2.t4 multiplexer_0.trans_gate_m_31.out.t5 avdd.t30 sky130_fd_pr__pfet_g5v0d10v5 ad=0.29 pd=2.58 as=0.29 ps=2.58 w=1 l=3
X77 avss.t208 avss.t209 avss.t14 sky130_fd_pr__res_xhigh_po_1p41 l=1.41
X78 a_n12118_10515.t0 a_n8898_10137.t0 avss.t10 sky130_fd_pr__res_xhigh_po_1p41 l=14.1
X79 avss.t202 avss.t203 avss.t0 sky130_fd_pr__res_xhigh_po_1p41 l=1.41
X80 a_n8362_13917.t1 a_n5142_13539.t0 avss.t13 sky130_fd_pr__res_xhigh_po_1p41 l=14.1
X81 multiplexer_0.in_1010.t1 multiplexer_0.in_1001.t2 avss.t13 sky130_fd_pr__res_xhigh_po_1p41 l=14.1
X82 a_n15874_n447.t0 a_n12654_n69.t1 avss.t5 sky130_fd_pr__res_xhigh_po_1p41 l=14.1
X83 a_n15874_4845.t1 a_n12654_4467.t1 avss.t5 sky130_fd_pr__res_xhigh_po_1p41 l=14.1
X84 avss.t121 avss.t122 avss.t14 sky130_fd_pr__res_xhigh_po_1p41 l=1.41
X85 dvss.t24 comp_hyst_0.ena_b.t2 comp_hyst_0.net5.t3 dvss.t23 sky130_fd_pr__nfet_01v8 ad=0.29 pd=2.58 as=0.29 ps=2.58 w=1 l=3
X86 a_n12118_14295.t0 a_n8898_14673.t0 avss.t10 sky130_fd_pr__res_xhigh_po_1p41 l=14.1
X87 level_shifter_2.in_b.t0 vtrip[2].t0 dvdd.t117 dvdd.t116 sky130_fd_pr__pfet_01v8 ad=0.29 pd=2.58 as=0.29 ps=2.58 w=1 l=3
X88 dvdd.t98 dvdd.t96 dvdd.t97 dvdd.t53 sky130_fd_pr__pfet_01v8 ad=0.29 pd=2.58 as=0 ps=0 w=1 l=1
X89 a_n12654_1821.t1 a_n8898_1821.t1 avss.t10 sky130_fd_pr__res_xhigh_po_1p41 l=14.1
X90 a_n15874_14673.t0 a_n12654_15051.t1 avss.t5 sky130_fd_pr__res_xhigh_po_1p41 l=14.1
X91 avss.t210 avss.t211 avss.t14 sky130_fd_pr__res_xhigh_po_1p41 l=1.41
X92 multiplexer_0.trans_gate_m_18.in.t1 multiplexer_0.vtrip_0.t5 multiplexer_0.in_1100.t3 avdd.t16 sky130_fd_pr__pfet_g5v0d10v5 ad=0.29 pd=2.58 as=0.29 ps=2.58 w=1 l=3
X93 avss.t54 level_shifter_2.in_b.t2 multiplexer_0.vtrip_2.t1 avss.t31 sky130_fd_pr__nfet_g5v0d10v5 ad=0.58 pd=4.58 as=0.58 ps=4.58 w=2 l=3
X94 avss.t93 avss.t94 avss.t0 sky130_fd_pr__res_xhigh_po_1p41 l=1.41
X95 multiplexer_0.trans_gate_m_32.in.t4 multiplexer_0.vtrip_1_b.t5 multiplexer_0.trans_gate_m_21.in.t5 avdd.t40 sky130_fd_pr__pfet_g5v0d10v5 ad=0.29 pd=2.58 as=0.29 ps=2.58 w=1 l=3
X96 comp_hyst_0.net3.t7 comp_hyst_0.net3.t6 dvdd.t20 dvdd.t13 sky130_fd_pr__pfet_01v8 ad=0.29 pd=2.58 as=0.29 ps=2.58 w=1 l=16
X97 avss.t119 avss.t120 avss.t0 sky130_fd_pr__res_xhigh_po_1p41 l=1.41
X98 dvss.t22 vtrip[2].t1 level_shifter_2.in_b.t1 dvss.t21 sky130_fd_pr__nfet_01v8 ad=0.29 pd=2.58 as=0.29 ps=2.58 w=1 l=3
X99 a_n12118_8247.t0 a_n8898_7869.t0 avss.t10 sky130_fd_pr__res_xhigh_po_1p41 l=14.1
X100 multiplexer_0.trans_gate_m_19.in.t3 multiplexer_0.vtrip_0_b.t4 multiplexer_0.in_1110.t3 avss.t197 sky130_fd_pr__nfet_g5v0d10v5 ad=0.29 pd=2.58 as=0.29 ps=2.58 w=1 l=3
X101 dvss.t16 comp_hyst_0.net2 comp_hyst_0.net2.t2 dvss.t15 sky130_fd_pr__nfet_01v8 ad=0.29 pd=2.58 as=0.29 ps=2.58 w=1 l=8
X102 a_n15874_n1959.t0 a_n12654_n1959.t0 avss.t5 sky130_fd_pr__res_xhigh_po_1p41 l=14.1
X103 a_n8898_1065.t0 a_n5142_687.t0 avss.t13 sky130_fd_pr__res_xhigh_po_1p41 l=14.1
X104 multiplexer_0.vtrip_0_b.t0 multiplexer_0.vtrip_0.t6 avdd.t14 avdd.t13 sky130_fd_pr__pfet_g5v0d10v5 ad=0.29 pd=2.58 as=0.29 ps=2.58 w=1 l=3
X105 multiplexer_0.trans_gate_m_29.in.t4 multiplexer_0.vtrip_0_b.t5 multiplexer_0.in_0011.t3 avdd.t17 sky130_fd_pr__pfet_g5v0d10v5 ad=0.29 pd=2.58 as=0.29 ps=2.58 w=1 l=3
X106 avss.t71 avss.t72 avss.t14 sky130_fd_pr__res_xhigh_po_1p41 l=1.41
X107 multiplexer_0.trans_gate_m_33.in.t4 multiplexer_0.vtrip_2.t5 multiplexer_0.trans_gate_m_28.in.t3 avss.t254 sky130_fd_pr__nfet_g5v0d10v5 ad=0.29 pd=2.58 as=0.29 ps=2.58 w=1 l=3
X108 avss.t44 multiplexer_0.vtrip_1.t4 sky130_fd_pr__diode_pw2nd_05v5 perim=2.3e+06 area=3.15e+11
**devattr s=515385786,232366 d=515385786,232366
X109 dvdd.t95 dvdd.t93 dvdd.t94 dvdd.t43 sky130_fd_pr__pfet_01v8 ad=0.29 pd=2.58 as=0 ps=0 w=1 l=1
X110 a_n8898_n1581.t1 a_n5142_n1581.t1 avss.t13 sky130_fd_pr__res_xhigh_po_1p41 l=14.1
X111 a_n15874_1821.t1 a_n12654_2199.t1 avss.t5 sky130_fd_pr__res_xhigh_po_1p41 l=14.1
X112 a_n12654_n69.t0 a_n8898_n69.t0 avss.t10 sky130_fd_pr__res_xhigh_po_1p41 l=14.1
X113 a_n12118_11271.t0 a_n8898_11649.t0 avss.t10 sky130_fd_pr__res_xhigh_po_1p41 l=14.1
X114 avss.t183 avss.t184 avss.t0 sky130_fd_pr__res_xhigh_po_1p41 l=1.41
X115 a_n8362_4845.t1 multiplexer_0.in_0111.t2 avss.t13 sky130_fd_pr__res_xhigh_po_1p41 l=14.1
X116 a_n15874_11649.t1 a_n12654_12027.t0 avss.t5 sky130_fd_pr__res_xhigh_po_1p41 l=14.1
X117 a_n15874_8625.t0 a_n12654_8247.t0 avss.t5 sky130_fd_pr__res_xhigh_po_1p41 l=14.1
X118 avss.t255 avss.t256 avss.t0 sky130_fd_pr__res_xhigh_po_1p41 l=1.41
X119 multiplexer_0.trans_gate_m_19.in.t1 multiplexer_0.vtrip_0.t7 multiplexer_0.in_1111.t0 avss.t158 sky130_fd_pr__nfet_g5v0d10v5 ad=0.29 pd=2.58 as=0.29 ps=2.58 w=1 l=3
X120 avss.t200 avss.t201 avss.t14 sky130_fd_pr__res_xhigh_po_1p41 l=1.41
X121 a_n15874_5601.t0 a_n12654_5979.t0 avss.t5 sky130_fd_pr__res_xhigh_po_1p41 l=14.1
X122 avss.t73 multiplexer_0.vtrip_0.t8 sky130_fd_pr__diode_pw2nd_05v5 perim=2.3e+06 area=3.15e+11
**devattr s=515385786,232366 d=515385786,232366
X123 multiplexer_0.trans_gate_m_28.in.t1 multiplexer_0.vtrip_1.t5 multiplexer_0.trans_gate_m_25.in.t2 avss.t216 sky130_fd_pr__nfet_g5v0d10v5 ad=0.29 pd=2.58 as=0.29 ps=2.58 w=1 l=3
X124 comp_hyst_0.net4.t5 comp_hyst_0.net3.t10 dvdd.t17 dvdd.t16 sky130_fd_pr__pfet_01v8 ad=0.29 pd=2.58 as=0.29 ps=2.58 w=1 l=16
X125 avss.t52 avss.t53 avss.t14 sky130_fd_pr__res_xhigh_po_1p41 l=1.41
X126 avss.t69 avss.t70 avss.t14 sky130_fd_pr__res_xhigh_po_1p41 l=1.41
X127 multiplexer_0.trans_gate_m_37.in.t2 multiplexer_0.vtrip_1.t6 multiplexer_0.trans_gate_m_19.in.t2 avss.t215 sky130_fd_pr__nfet_g5v0d10v5 ad=0.29 pd=2.58 as=0.29 ps=2.58 w=1 l=3
X128 a_n12118_5223.t1 a_n8898_5601.t1 avss.t10 sky130_fd_pr__res_xhigh_po_1p41 l=14.1
X129 a_n8898_n1203.t1 a_n5142_n1581.t0 avss.t13 sky130_fd_pr__res_xhigh_po_1p41 l=14.1
X130 a_n12118_2955.t0 a_n8898_2577.t0 avss.t10 sky130_fd_pr__res_xhigh_po_1p41 l=14.1
X131 avss.t110 avss.t111 avss.t14 sky130_fd_pr__res_xhigh_po_1p41 l=1.41
X132 multiplexer_0.trans_gate_m_25.in.t3 multiplexer_0.vtrip_0_b.t6 multiplexer_0.in_0111.t3 avdd.t4 sky130_fd_pr__pfet_g5v0d10v5 ad=0.29 pd=2.58 as=0.29 ps=2.58 w=1 l=3
X133 dvdd.t92 dvdd.t90 dvdd.t91 dvdd.t60 sky130_fd_pr__pfet_01v8 ad=0.29 pd=2.58 as=0 ps=0 w=1 l=1
X134 avss.t117 avss.t118 avss.t14 sky130_fd_pr__res_xhigh_po_1p41 l=1.41
X135 comp_hyst_0.net4.t0 ena.t1 dvdd.t3 dvdd.t2 sky130_fd_pr__pfet_01v8 ad=0.29 pd=2.58 as=0.29 ps=2.58 w=1 l=3
X136 avss.t11 avss.t12 avss.t0 sky130_fd_pr__res_xhigh_po_1p41 l=1.41
X137 a_n8362_12405.t0 a_n5142_12783.t0 avss.t13 sky130_fd_pr__res_xhigh_po_1p41 l=14.1
X138 multiplexer_0.trans_gate_m_23.in.t4 multiplexer_0.vtrip_0_b.t7 multiplexer_0.in_1000.t3 avss.t47 sky130_fd_pr__nfet_g5v0d10v5 ad=0.29 pd=2.58 as=0.29 ps=2.58 w=1 l=3
X139 multiplexer_0.trans_gate_m_37.out.t1 multiplexer_0.vtrip_2_b.t3 multiplexer_0.trans_gate_m_37.in.t0 avdd.t3 sky130_fd_pr__pfet_g5v0d10v5 ad=0.29 pd=2.58 as=0.29 ps=2.58 w=1 l=3
X140 avss.t152 ena.t2 sky130_fd_pr__diode_pw2nd_05v5 perim=2.3e+06 area=3.15e+11
**devattr s=515385786,232366 d=515385786,232366
X141 dvdd.t89 dvdd.t87 dvdd.t88 dvdd.t18 sky130_fd_pr__pfet_01v8 ad=0.29 pd=2.58 as=0 ps=0 w=1 l=16
X142 multiplexer_0.in_1110.t2 multiplexer_0.in_1101.t3 avss.t13 sky130_fd_pr__res_xhigh_po_1p41 l=14.1
X143 dvdd.t86 dvdd.t84 dvdd.t85 dvdd.t60 sky130_fd_pr__pfet_01v8 ad=0.29 pd=2.58 as=0 ps=0 w=1 l=1
X144 multiplexer_0.vtrip_3_b.t0 multiplexer_0.vtrip_3.t2 avdd.t25 avdd.t24 sky130_fd_pr__pfet_g5v0d10v5 ad=0.29 pd=2.58 as=0.29 ps=2.58 w=1 l=3
X145 comp_hyst_0.net2.t0 comp_hyst_0.net4.t12 dvdd.t11 dvdd.t10 sky130_fd_pr__pfet_01v8 ad=0.29 pd=2.58 as=0.29 ps=2.58 w=1 l=8
X146 vin.t2 multiplexer_0.vtrip_3.t3 multiplexer_0.trans_gate_m_37.out.t3 avss.t41 sky130_fd_pr__nfet_g5v0d10v5 ad=0.29 pd=2.58 as=0.29 ps=2.58 w=1 l=3
X147 avss.t166 avss.t167 avss.t10 sky130_fd_pr__res_xhigh_po_1p41 l=14.1
X148 multiplexer_0.trans_gate_m_27.in.t0 multiplexer_0.vtrip_0.t9 multiplexer_0.in_0100.t1 avdd.t10 sky130_fd_pr__pfet_g5v0d10v5 ad=0.29 pd=2.58 as=0.29 ps=2.58 w=1 l=3
X149 avss.t91 avss.t92 avss.t14 sky130_fd_pr__res_xhigh_po_1p41 l=1.41
X150 avss.t58 avss.t59 avss.t0 sky130_fd_pr__res_xhigh_po_1p41 l=1.41
X151 avss.t250 avss.t251 avss.t0 sky130_fd_pr__res_xhigh_po_1p41 l=1.41
X152 multiplexer_0.trans_gate_m_31.in.t1 multiplexer_0.vtrip_0.t10 multiplexer_0.in_0000.t0 avdd.t0 sky130_fd_pr__pfet_g5v0d10v5 ad=0.29 pd=2.58 as=0.29 ps=2.58 w=1 l=3
X153 a_n8362_8625.t1 multiplexer_0.in_0001.t2 avss.t13 sky130_fd_pr__res_xhigh_po_1p41 l=14.1
X154 avss.t67 avss.t68 avss.t0 sky130_fd_pr__res_xhigh_po_1p41 l=1.41
X155 multiplexer_0.in_0101.t2 a_n5142_5979.t1 avss.t13 sky130_fd_pr__res_xhigh_po_1p41 l=14.1
X156 multiplexer_0.trans_gate_m_37.in.t1 multiplexer_0.vtrip_1.t7 multiplexer_0.trans_gate_m_18.in.t2 avdd.t22 sky130_fd_pr__pfet_g5v0d10v5 ad=0.29 pd=2.58 as=0.29 ps=2.58 w=1 l=3
X157 a_n12654_n825.t1 a_n8898_n825.t1 avss.t10 sky130_fd_pr__res_xhigh_po_1p41 l=14.1
X158 avss.t232 avss.t233 avss.t14 sky130_fd_pr__res_xhigh_po_1p41 l=1.41
X159 a_n15874_9381.t0 a_n12654_9759.t0 avss.t5 sky130_fd_pr__res_xhigh_po_1p41 l=14.1
X160 a_n15874_10893.t0 a_n12654_10515.t0 avss.t5 sky130_fd_pr__res_xhigh_po_1p41 l=14.1
X161 avss.t198 avss.t199 avss.t14 sky130_fd_pr__res_xhigh_po_1p41 l=1.41
X162 a_n8362_12405.t1 a_n5142_12027.t1 avss.t13 sky130_fd_pr__res_xhigh_po_1p41 l=14.1
X163 dvss.t18 vbg.t2 sky130_fd_pr__diode_pw2nd_05v5 perim=2.3e+06 area=3.15e+11
**devattr s=153706620,137952 d=153706620,137952
X164 a_n12118_6735.t1 a_n8898_6357.t1 avss.t10 sky130_fd_pr__res_xhigh_po_1p41 l=14.1
X165 avss.t164 avss.t165 avss.t14 sky130_fd_pr__res_xhigh_po_1p41 l=1.41
X166 a_n15874_3333.t1 a_n12654_2955.t1 avss.t5 sky130_fd_pr__res_xhigh_po_1p41 l=14.1
X167 avss.t27 avss.t28 avss.t13 sky130_fd_pr__res_xhigh_po_1p41 l=14.1
X168 avss.t248 avss.t249 avss.t0 sky130_fd_pr__res_xhigh_po_1p41 l=1.41
X169 a_n12118_12783.t1 a_n8898_13161.t1 avss.t10 sky130_fd_pr__res_xhigh_po_1p41 l=14.1
X170 multiplexer_0.trans_gate_m_18.in.t3 multiplexer_0.vtrip_0_b.t8 multiplexer_0.in_1101.t0 avdd.t5 sky130_fd_pr__pfet_g5v0d10v5 ad=0.29 pd=2.58 as=0.29 ps=2.58 w=1 l=3
X171 dvss.t26 comp_hyst_0.ena_b.t3 comp_hyst_0.net2.t1 dvss.t25 sky130_fd_pr__nfet_01v8 ad=0.29 pd=2.58 as=0.29 ps=2.58 w=1 l=3
X172 dvdd.t83 dvdd.t81 dvdd.t82 dvdd.t53 sky130_fd_pr__pfet_01v8 ad=0.29 pd=2.58 as=0 ps=0 w=1 l=1
X173 multiplexer_0.trans_gate_m_31.out.t3 multiplexer_0.vtrip_1.t8 multiplexer_0.trans_gate_m_31.in.t2 avdd.t21 sky130_fd_pr__pfet_g5v0d10v5 ad=0.29 pd=2.58 as=0.29 ps=2.58 w=1 l=3
X174 a_n15874_7113.t1 a_n12654_7491.t1 avss.t5 sky130_fd_pr__res_xhigh_po_1p41 l=14.1
X175 comp_hyst_0.ena_b.t0 ena.t3 dvdd.t115 dvdd.t114 sky130_fd_pr__pfet_01v8 ad=0.29 pd=2.58 as=0.29 ps=2.58 w=1 l=3
X176 a_n15874_10137.t1 a_n12654_10515.t1 avss.t5 sky130_fd_pr__res_xhigh_po_1p41 l=14.1
X177 avss.t55 avss.t56 avss.t0 sky130_fd_pr__res_xhigh_po_1p41 l=1.41
X178 multiplexer_0.trans_gate_m_37.out.t0 multiplexer_0.vtrip_2_b.t4 multiplexer_0.trans_gate_m_32.in.t0 avss.t25 sky130_fd_pr__nfet_g5v0d10v5 ad=0.29 pd=2.58 as=0.29 ps=2.58 w=1 l=3
X179 multiplexer_0.vtrip_1.t1 multiplexer_0.vtrip_1_b.t6 avdd.t39 avdd.t18 sky130_fd_pr__pfet_g5v0d10v5 ad=0.29 pd=2.58 as=0.29 ps=2.58 w=1 l=3
X180 avss.t194 avss.t195 avss.t14 sky130_fd_pr__res_xhigh_po_1p41 l=1.41
X181 multiplexer_0.trans_gate_m_29.in.t0 multiplexer_0.vtrip_0_b.t9 multiplexer_0.in_0010.t2 avss.t57 sky130_fd_pr__nfet_g5v0d10v5 ad=0.29 pd=2.58 as=0.29 ps=2.58 w=1 l=3
X182 dvdd.t80 dvdd.t78 dvdd.t79 dvdd.t13 sky130_fd_pr__pfet_01v8 ad=0.29 pd=2.58 as=0 ps=0 w=1 l=16
X183 a_n12118_3711.t0 a_n8898_4089.t0 avss.t10 sky130_fd_pr__res_xhigh_po_1p41 l=14.1
X184 avss.t161 multiplexer_0.vtrip_3_b.t4 sky130_fd_pr__diode_pw2nd_05v5 perim=2.3e+06 area=3.15e+11
**devattr s=515385786,232366 d=515385786,232366
X185 avss.t230 avss.t231 avss.t0 sky130_fd_pr__res_xhigh_po_1p41 l=1.41
X186 avss.t149 avss.t150 avss.t14 sky130_fd_pr__res_xhigh_po_1p41 l=1.41
X187 avss.t238 vtrip[3].t0 multiplexer_0.vtrip_3_b.t1 avss.t31 sky130_fd_pr__nfet_g5v0d10v5 ad=0.58 pd=4.58 as=0.58 ps=4.58 w=2 l=3
X188 a_n15874_309.t0 a_n12654_687.t1 avss.t5 sky130_fd_pr__res_xhigh_po_1p41 l=14.1
X189 voltage_divider_0.51.t0 a_n5142_9759.t0 avss.t13 sky130_fd_pr__res_xhigh_po_1p41 l=14.1
X190 a_n15874_14673.t1 a_n12654_14295.t0 avss.t5 sky130_fd_pr__res_xhigh_po_1p41 l=14.1
X191 dvdd.t77 dvdd.t75 dvdd.t76 dvdd.t43 sky130_fd_pr__pfet_01v8 ad=0.29 pd=2.58 as=0 ps=0 w=1 l=1
X192 dvss.t28 ena.t4 comp_hyst_0.ena_b.t1 dvss.t27 sky130_fd_pr__nfet_01v8 ad=0.29 pd=2.58 as=0.29 ps=2.58 w=1 l=3
X193 multiplexer_0.trans_gate_m_23.in.t0 multiplexer_0.vtrip_0.t11 multiplexer_0.in_1001.t0 avss.t30 sky130_fd_pr__nfet_g5v0d10v5 ad=0.29 pd=2.58 as=0.29 ps=2.58 w=1 l=3
X194 comp_hyst_0.net5.t4 ena.t5 ibias.t0 dvss.t29 sky130_fd_pr__nfet_g5v0d10v5 ad=0.29 pd=2.58 as=0.29 ps=2.58 w=1 l=5
X195 a_n12118_9759.t1 a_n8898_10137.t1 avss.t10 sky130_fd_pr__res_xhigh_po_1p41 l=14.1
X196 avss.t244 avss.t245 avss.t0 sky130_fd_pr__res_xhigh_po_1p41 l=1.41
X197 a_n8362_13161.t1 a_n5142_13539.t1 avss.t13 sky130_fd_pr__res_xhigh_po_1p41 l=14.1
X198 multiplexer_0.trans_gate_m_32.in.t5 multiplexer_0.vtrip_1_b.t7 multiplexer_0.trans_gate_m_23.in.t5 avss.t112 sky130_fd_pr__nfet_g5v0d10v5 ad=0.29 pd=2.58 as=0.29 ps=2.58 w=1 l=3
X199 multiplexer_0.in_1010.t2 multiplexer_0.in_1011.t3 avss.t13 sky130_fd_pr__res_xhigh_po_1p41 l=14.1
X200 a_n15874_7113.t0 a_n12654_6735.t0 avss.t5 sky130_fd_pr__res_xhigh_po_1p41 l=14.1
X201 a_n12118_7491.t1 a_n8898_7869.t1 avss.t10 sky130_fd_pr__res_xhigh_po_1p41 l=14.1
X202 a_n15874_4089.t0 a_n12654_4467.t0 avss.t5 sky130_fd_pr__res_xhigh_po_1p41 l=14.1
X203 avss.t45 avss.t46 avss.t14 sky130_fd_pr__res_xhigh_po_1p41 l=1.41
X204 dvss.t74 ena.t6 sky130_fd_pr__diode_pw2nd_05v5 perim=2.3e+06 area=3.15e+11
**devattr s=153706620,137952 d=153706620,137952
X205 a_n12118_14295.t1 a_n8898_13917.t1 avss.t10 sky130_fd_pr__res_xhigh_po_1p41 l=14.1
X206 level_shifter_1.in_b.t0 vtrip[1].t1 dvdd.t22 dvdd.t21 sky130_fd_pr__pfet_01v8 ad=0.29 pd=2.58 as=0.29 ps=2.58 w=1 l=3
X207 dvdd.t74 dvdd.t72 dvdd.t73 dvdd.t16 sky130_fd_pr__pfet_01v8 ad=0.29 pd=2.58 as=0 ps=0 w=1 l=16
X208 avss.t6 avss.t7 avss.t0 sky130_fd_pr__res_xhigh_po_1p41 l=1.41
X209 multiplexer_0.trans_gate_m_21.in.t1 multiplexer_0.vtrip_0.t12 multiplexer_0.in_1010.t0 avdd.t6 sky130_fd_pr__pfet_g5v0d10v5 ad=0.29 pd=2.58 as=0.29 ps=2.58 w=1 l=3
X210 dvdd.t71 dvdd.t69 dvdd.t70 dvdd.t60 sky130_fd_pr__pfet_01v8 ad=0.29 pd=2.58 as=0 ps=0 w=1 l=1
X211 multiplexer_0.trans_gate_m_28.in.t2 multiplexer_0.vtrip_1.t9 multiplexer_0.trans_gate_m_27.in.t2 avdd.t20 sky130_fd_pr__pfet_g5v0d10v5 ad=0.29 pd=2.58 as=0.29 ps=2.58 w=1 l=3
X212 a_n12118_13539.t1 a_n8898_13917.t0 avss.t10 sky130_fd_pr__res_xhigh_po_1p41 l=14.1
X213 a_n12654_1443.t0 a_n8898_1443.t0 avss.t10 sky130_fd_pr__res_xhigh_po_1p41 l=14.1
X214 a_n8362_7113.t1 multiplexer_0.in_0010.t1 avss.t13 sky130_fd_pr__res_xhigh_po_1p41 l=14.1
X215 avss.t192 avss.t193 avss.t14 sky130_fd_pr__res_xhigh_po_1p41 l=1.41
X216 avss.t32 level_shifter_1.in_b.t2 multiplexer_0.vtrip_1.t0 avss.t31 sky130_fd_pr__nfet_g5v0d10v5 ad=0.58 pd=4.58 as=0.58 ps=4.58 w=2 l=3
X217 a_n15874_309.t1 a_n12654_309.t1 avss.t5 sky130_fd_pr__res_xhigh_po_1p41 l=14.1
X218 a_n8898_n69.t1 a_n5142_n69.t0 avss.t13 sky130_fd_pr__res_xhigh_po_1p41 l=14.1
X219 avss.t17 avss.t18 avss.t0 sky130_fd_pr__res_xhigh_po_1p41 l=1.41
X220 a_n12654_687.t0 a_n8898_687.t0 avss.t10 sky130_fd_pr__res_xhigh_po_1p41 l=14.1
X221 a_n15874_11649.t0 a_n12654_11271.t0 avss.t5 sky130_fd_pr__res_xhigh_po_1p41 l=14.1
X222 dvdd.t68 dvdd.t66 dvdd.t67 dvdd.t18 sky130_fd_pr__pfet_01v8 ad=0.29 pd=2.58 as=0 ps=0 w=1 l=16
X223 dvss.t12 vtrip[3].t1 level_shifter_3.in_b.t1 dvss.t11 sky130_fd_pr__nfet_01v8 ad=0.29 pd=2.58 as=0.29 ps=2.58 w=1 l=3
X224 dvdd.t65 dvdd.t63 dvdd.t64 dvdd.t60 sky130_fd_pr__pfet_01v8 ad=0.29 pd=2.58 as=0 ps=0 w=1 l=1
X225 a_n8362_10893.t0 a_n5142_11271.t0 avss.t13 sky130_fd_pr__res_xhigh_po_1p41 l=14.1
X226 avss.t242 avss.t243 avss.t14 sky130_fd_pr__res_xhigh_po_1p41 l=1.41
X227 avss.t139 avss.t140 avss.t0 sky130_fd_pr__res_xhigh_po_1p41 l=1.41
X228 multiplexer_0.trans_gate_m_18.in.t0 multiplexer_0.vtrip_0.t13 multiplexer_0.in_1101.t1 avss.t61 sky130_fd_pr__nfet_g5v0d10v5 ad=0.29 pd=2.58 as=0.29 ps=2.58 w=1 l=3
X229 avss.t155 avss.t156 avss.t14 sky130_fd_pr__res_xhigh_po_1p41 l=1.41
X230 dvss.t7 vtrip[1].t2 sky130_fd_pr__diode_pw2nd_05v5 perim=2.3e+06 area=3.15e+11
**devattr s=153706620,137952 d=153706620,137952
X231 avss.t115 avss.t116 avss.t14 sky130_fd_pr__res_xhigh_po_1p41 l=1.41
X232 dvdd.t62 dvdd.t59 dvdd.t61 dvdd.t60 sky130_fd_pr__pfet_01v8 ad=0.29 pd=2.58 as=0 ps=0 w=1 l=1
X233 a_n15874_1821.t0 a_n12654_1821.t0 avss.t5 sky130_fd_pr__res_xhigh_po_1p41 l=14.1
X234 comp_hyst_0.net4.t6 comp_hyst_0.net3.t11 dvdd.t19 dvdd.t18 sky130_fd_pr__pfet_01v8 ad=0.29 pd=2.58 as=0.29 ps=2.58 w=1 l=16
X235 multiplexer_0.trans_gate_m_31.in.t4 multiplexer_0.vtrip_0_b.t10 multiplexer_0.in_0001.t3 avdd.t15 sky130_fd_pr__pfet_g5v0d10v5 ad=0.29 pd=2.58 as=0.29 ps=2.58 w=1 l=3
X236 avss.t162 avss.t163 avss.t14 sky130_fd_pr__res_xhigh_po_1p41 l=1.41
X237 multiplexer_0.trans_gate_m_25.in.t4 multiplexer_0.vtrip_0_b.t11 multiplexer_0.in_0110.t2 avss.t182 sky130_fd_pr__nfet_g5v0d10v5 ad=0.29 pd=2.58 as=0.29 ps=2.58 w=1 l=3
X238 avss.t240 avss.t241 avss.t0 sky130_fd_pr__res_xhigh_po_1p41 l=1.41
X239 multiplexer_0.trans_gate_m_33.in.t1 multiplexer_0.vtrip_2_b.t5 multiplexer_0.trans_gate_m_31.out.t0 avss.t26 sky130_fd_pr__nfet_g5v0d10v5 ad=0.29 pd=2.58 as=0.29 ps=2.58 w=1 l=3
X240 multiplexer_0.trans_gate_m_37.in.t5 multiplexer_0.vtrip_1_b.t8 multiplexer_0.trans_gate_m_19.in.t5 avdd.t38 sky130_fd_pr__pfet_g5v0d10v5 ad=0.29 pd=2.58 as=0.29 ps=2.58 w=1 l=3
X241 avss.t236 avss.t237 avss.t0 sky130_fd_pr__res_xhigh_po_1p41 l=1.41
X242 a_n8362_7113.t0 multiplexer_0.in_0011.t1 avss.t13 sky130_fd_pr__res_xhigh_po_1p41 l=14.1
X243 a_n12654_n1581.t1 a_n8898_n1581.t0 avss.t10 sky130_fd_pr__res_xhigh_po_1p41 l=14.1
X244 multiplexer_0.in_1000.t2 multiplexer_0.in_0111.t1 avss.t13 sky130_fd_pr__res_xhigh_po_1p41 l=14.1
X245 a_n15874_7869.t1 a_n12654_8247.t1 avss.t5 sky130_fd_pr__res_xhigh_po_1p41 l=14.1
X246 dvss.t9 vtrip[1].t3 level_shifter_1.in_b.t1 dvss.t8 sky130_fd_pr__nfet_01v8 ad=0.29 pd=2.58 as=0.29 ps=2.58 w=1 l=3
X247 a_n12654_309.t0 a_n8898_309.t0 avss.t10 sky130_fd_pr__res_xhigh_po_1p41 l=14.1
X248 comp_hyst_0.net4.t2 comp_hyst_0.net4.t1 dvdd.t9 dvdd.t6 sky130_fd_pr__pfet_01v8 ad=0.29 pd=2.58 as=0.29 ps=2.58 w=1 l=8
X249 avss.t90 vtrip[0].t1 multiplexer_0.vtrip_0_b.t1 avss.t31 sky130_fd_pr__nfet_g5v0d10v5 ad=0.58 pd=4.58 as=0.58 ps=4.58 w=2 l=3
X250 avss.t50 avss.t51 avss.t14 sky130_fd_pr__res_xhigh_po_1p41 l=1.41
X251 avss.t48 avss.t49 avss.t0 sky130_fd_pr__res_xhigh_po_1p41 l=1.41
X252 a_n12118_5223.t0 a_n8898_4845.t1 avss.t10 sky130_fd_pr__res_xhigh_po_1p41 l=14.1
X253 a_n12118_2199.t1 a_n8898_2577.t1 avss.t10 sky130_fd_pr__res_xhigh_po_1p41 l=14.1
X254 level_shifter_3.in_b.t0 vtrip[3].t2 dvdd.t1 dvdd.t0 sky130_fd_pr__pfet_01v8 ad=0.29 pd=2.58 as=0.29 ps=2.58 w=1 l=3
X255 avss.t180 avss.t181 avss.t5 sky130_fd_pr__res_xhigh_po_1p41 l=14.1
X256 dvdd.t58 dvdd.t56 dvdd.t57 dvdd.t53 sky130_fd_pr__pfet_01v8 ad=0.29 pd=2.58 as=0 ps=0 w=1 l=1
X257 multiplexer_0.trans_gate_m_31.out.t1 multiplexer_0.vtrip_1_b.t9 multiplexer_0.trans_gate_m_29.in.t3 avdd.t37 sky130_fd_pr__pfet_g5v0d10v5 ad=0.29 pd=2.58 as=0.29 ps=2.58 w=1 l=3
X258 avss.t147 multiplexer_0.vtrip_0.t14 sky130_fd_pr__diode_pw2nd_05v5 perim=2.3e+06 area=3.15e+11
**devattr s=515385786,232366 d=515385786,232366
X259 a_n8898_15051.t1 avdd.t28 avss.t13 sky130_fd_pr__res_xhigh_po_1p41 l=14.1
X260 avss.t234 avss.t235 avss.t0 sky130_fd_pr__res_xhigh_po_1p41 l=1.41
X261 avss.t23 avss.t24 avss.t14 sky130_fd_pr__res_xhigh_po_1p41 l=1.41
X262 avss.t137 avss.t138 avss.t14 sky130_fd_pr__res_xhigh_po_1p41 l=1.41
X263 avss.t178 avss.t179 avss.t14 sky130_fd_pr__res_xhigh_po_1p41 l=1.41
X264 multiplexer_0.trans_gate_m_32.in.t2 multiplexer_0.vtrip_1.t10 multiplexer_0.trans_gate_m_21.in.t3 avss.t214 sky130_fd_pr__nfet_g5v0d10v5 ad=0.29 pd=2.58 as=0.29 ps=2.58 w=1 l=3
X265 avss.t176 avss.t177 avss.t14 sky130_fd_pr__res_xhigh_po_1p41 l=1.41
X266 a_n12118_9003.t1 a_n8898_9381.t1 avss.t10 sky130_fd_pr__res_xhigh_po_1p41 l=14.1
X267 avss.t3 avss.t4 avss.t0 sky130_fd_pr__res_xhigh_po_1p41 l=1.41
X268 a_n12654_n1203.t1 a_n8898_n1203.t0 avss.t10 sky130_fd_pr__res_xhigh_po_1p41 l=14.1
X269 multiplexer_0.trans_gate_m_29.in.t2 multiplexer_0.vtrip_0.t15 multiplexer_0.in_0011.t0 avss.t148 sky130_fd_pr__nfet_g5v0d10v5 ad=0.29 pd=2.58 as=0.29 ps=2.58 w=1 l=3
X270 dvdd.t55 dvdd.t52 dvdd.t54 dvdd.t53 sky130_fd_pr__pfet_01v8 ad=0.29 pd=2.58 as=0 ps=0 w=1 l=1
X271 multiplexer_0.in_1110.t1 multiplexer_0.in_1111.t1 avss.t13 sky130_fd_pr__res_xhigh_po_1p41 l=14.1
X272 dvdd.t51 dvdd.t49 dvdd.t50 dvdd.t13 sky130_fd_pr__pfet_01v8 ad=0.29 pd=2.58 as=0 ps=0 w=1 l=16
X273 a_n15874_5601.t1 a_n12654_5223.t0 avss.t5 sky130_fd_pr__res_xhigh_po_1p41 l=14.1
X274 multiplexer_0.vtrip_2_b.t1 multiplexer_0.vtrip_2.t6 avdd.t29 avdd.t1 sky130_fd_pr__pfet_g5v0d10v5 ad=0.29 pd=2.58 as=0.29 ps=2.58 w=1 l=3
X275 a_n15874_2577.t0 a_n12654_2955.t0 avss.t5 sky130_fd_pr__res_xhigh_po_1p41 l=14.1
X276 multiplexer_0.trans_gate_m_21.in.t2 multiplexer_0.vtrip_0_b.t12 multiplexer_0.in_1011.t2 avdd.t12 sky130_fd_pr__pfet_g5v0d10v5 ad=0.29 pd=2.58 as=0.29 ps=2.58 w=1 l=3
X277 a_n8898_n1959.t1 a_n5142_n1959.t1 avss.t13 sky130_fd_pr__res_xhigh_po_1p41 l=14.1
X278 dvdd.t48 dvdd.t46 dvdd.t47 dvdd.t43 sky130_fd_pr__pfet_01v8 ad=0.29 pd=2.58 as=0 ps=0 w=1 l=1